2018-06-27 09:43:44,344  INFO Gbl:59 JVM: 1.8.0_171; Oracle Corporation; mixed mode; 64-bit
2018-06-27 09:43:44,345  INFO Gbl:63 OS: Windows 7; 6.1; amd64
2018-06-27 09:43:44,346  INFO Gbl:66 CPU cores: 12
2018-06-27 09:43:44,347  INFO Gbl:67 max. Memory: 14548.0MB (15254683648B)
2018-06-27 09:43:44,361  INFO Gbl:105 MATSim-Build: r${buildNumber} (${timestamp})
2018-06-27 09:43:44,398  INFO ControlerListenerManagerImpl:107 calling notifyStartup on org.matsim.counts.CountsControlerListener
2018-06-27 09:43:44,399  INFO ControlerListenerManagerImpl:107 calling notifyStartup on org.matsim.analysis.ModeStatsControlerListener
2018-06-27 09:43:44,433 DEBUG NetworkRoutingProvider:75 requesting network routing module with routingMode=car;	mode=car
2018-06-27 09:43:44,494  INFO NetworkImpl:167  node # 1
2018-06-27 09:43:44,495  INFO NetworkImpl:167  node # 4
2018-06-27 09:43:44,496  INFO NetworkImpl:163  link # 1
2018-06-27 09:43:44,497  INFO NetworkImpl:163  link # 4
2018-06-27 09:43:44,498  INFO NetworkImpl:163  link # 16
2018-06-27 09:43:44,566  INFO ControlerListenerManagerImpl:107 calling notifyStartup on org.matsim.analysis.ScoreStatsControlerListener
2018-06-27 09:43:44,581  INFO ControlerListenerManagerImpl:110 all ControlerStartupListeners called.
2018-06-27 09:43:44,597  INFO ControlerUtils:58 config dump before iterations start
2018-06-27 09:43:44,706  INFO ControlerUtils:62 

<?xml version="1.0" encoding="UTF-8"?>
<!DOCTYPE config SYSTEM "http://www.matsim.org/files/dtd/config_v2.dtd">
<config>
	<module name="Carsharing" >
		<param name="membership" value="test/input/org/matsim/contrib/carsharing/runExample/RunCarsharingIT//CSMembership.xml" />
		<param name="statsWriterFrequency" value="1" />
		<param name="vehiclelocations" value="test/input/org/matsim/contrib/carsharing/runExample/RunCarsharingIT//CarsharingStations.xml" />
	</module>
	<module name="FreeFloating" >
		<param name="areasFreefloating" value="freefloating_areas.xml" />
		<param name="constantFreeFloating" value="-0.0" />
		<param name="distanceFeeFreeFloating" value="-0.00" />
		<param name="specialTimeEnd" value="0" />
		<param name="specialTimeFee" value="0" />
		<param name="specialTimeStart" value="0" />
		<param name="timeFeeFreeFloating" value="-0.01" />
		<param name="timeParkingFeeFreeFloating" value="-0.005" />
		<param name="travelingFreeFloating" value="-0.1" />
		<param name="useFreeFloating" value="true" />
		<param name="vehiclelocationsFreefloating" value="null" />
	</module>
	<module name="JDEQSim" >
		<param name="carSize" value="7.5" />
		<param name="endTime" value="undefined" />
		<param name="flowCapacityFactor" value="1.0" />
		<param name="gapTravelSpeed" value="15.0" />
		<param name="minimumInFlowCapacity" value="1800.0" />
		<param name="squeezeTime" value="1800.0" />
		<param name="storageCapacityFactor" value="1.0" />
	</module>
	<module name="OneWayCarsharing" >
		<param name="constantOneWayCarsharing" value="-0.4" />
		<param name="distanceFeeOneWayCarsharing" value="-0.0" />
		<param name="rentalPriceTimeOneWayCarsharing" value="null" />
		<param name="searchDistanceOneWayCarsharing" value="1000.0" />
		<param name="timeFeeOneWayCarsharing" value="-0.0" />
		<param name="timeParkingFeeOneWayCarsharing" value="-0.005" />
		<param name="travelingOneWayCarsharing" value="-10.0" />
		<param name="useOneWayCarsharing" value="true" />
		<param name="vehiclelocationsOneWayCarsharing" value="Stations.txt" />
	</module>
	<module name="TimeAllocationMutator" >
		<!-- Default:true; Defines whether time mutation changes an activity's duration. -->
		<param name="mutationAffectsDuration" value="true" />
		<!-- Default:1800.0; Defines how many seconds a time mutation can maximally shift a time. -->
		<param name="mutationRange" value="1800.0" />
		<!-- false; Use individual settings for each subpopulation. If enabled but no settings are found, regular settings are uses as fallback. -->
		<param name="useIndividualSettingsForSubpopulations" value="false" />
	</module>
	<module name="TwoWayCarsharing" >
		<param name="constantTwoWayCarsharing" value="-0.4" />
		<param name="distanceFeeTwoWayCarsharing" value="-0.0" />
		<param name="rentalPriceTimeTwoWayCarsharing" value="null" />
		<param name="searchDistanceTwoWayCarsharing" value="10000.0" />
		<param name="timeFeeTwoWayCarsharing" value="-0.0" />
		<param name="travelingTwoWayCarsharing" value="-6.0" />
		<param name="useTwoWayCarsharing" value="true" />
		<param name="vehiclelocationsTwoWayCarsharing" value="CarsharingStations.xml" />
	</module>
	<module name="changeMode" >
		<!-- Defines whether car availability is considered be considered or not. An agent has no car only if it has no license, or never access to a car. Default: true -->
		<param name="ignoreCarAvailability" value="true" />
		<!-- Defines the mode switch behavior. Possible values [Lorg.matsim.core.config.groups.ChangeModeConfigGroup$Behavior;@7582ff54 Default: fromSpecifiedModesToSpecifiedModes. -->
		<param name="modeSwitchBehavior" value="fromSpecifiedModesToSpecifiedModes" />
		<!-- Defines all the modes available, including chain-based modes, seperated by commas -->
		<param name="modes" value="car,pt" />
	</module>
	<module name="controler" >
		<!-- Sets whether graphs showing some analyses should automatically be generated during the simulation. The generation of graphs usually takes a small amount of time that does not have any weight in big simulations, but add a significant overhead in smaller runs or in test cases where the graphical output is not even requested. -->
		<param name="createGraphs" value="true" />
		<!-- true if at the end of a run, plans, network, config etc should be dumped to a file -->
		<param name="dumpDataAtEnd" value="true" />
		<!-- Default=false. If enabled, the router takes travel times needed for turning moves into account. Cannot be used if the (Fast)AStarLandmarks routing or TravelTimeCalculator.separateModes is enabled. -->
		<param name="enableLinkToLinkRouting" value="false" />
		<!-- Default=xml; Specifies the file format for writing events. Currently supported: xml.
		Multiple values can be specified separated by commas (','). -->
		<param name="eventsFileFormat" value="xml" />
		<!-- Default=0;  -->
		<param name="firstIteration" value="0" />
		<!-- Default=1000;  -->
		<param name="lastIteration" value="3" />
		<!-- Defines which mobility simulation will be used. Currently supported: qsim JDEQSim 
		Depending on the chosen mobsim, you'll have to add additional config modules to configure the corresponding mobsim.
		For 'qsim', add a module 'qsim' to the config. -->
		<param name="mobsim" value="qsim" />
		<param name="outputDirectory" value="test/output/org/matsim/contrib/carsharing/runExample/RunCarsharingIT/test/" />
		<!-- Possible values: failIfDirectoryExists, overwriteExistingFiles, deleteDirectoryIfExists -->
		<param name="overwriteFiles" value="overwriteExistingFiles" />
		<!-- The type of routing (least cost path) algorithm used, may have the values: Dijkstra, FastDijkstra, AStarLandmarks or FastAStarLandmarks -->
		<param name="routingAlgorithmType" value="Dijkstra" />
		<!-- An identifier for the current run which is used as prefix for output files and mentioned in output xml files etc. -->
		<param name="runId" value="run1" />
		<!-- Comma-separated list of visualizer output file formats. `transims', `googleearth', and `otfvis'. -->
		<param name="snapshotFormat" value="" />
		<!-- iterationNumber % writeEventsInterval == 0 defines in which iterations events are written to a file. `0' disables events writing completely. -->
		<param name="writeEventsInterval" value="1" />
		<!-- iterationNumber % writePlansInterval == 0 defines (hopefully) in which iterations plans are written to a file. `0' disables plans writing completely.  Some plans in early iterations are always written -->
		<param name="writePlansInterval" value="1" />
		<!-- iterationNumber % writeSnapshotsInterval == 0 defines in which iterations snapshots are written to a file. `0' disables snapshots writing completely -->
		<param name="writeSnapshotsInterval" value="1" />
	</module>
	<module name="counts" >
		<!-- Transport modes that will be respected for the counts comparison. 'car' is default, which includes also bussed from the pt simulation module. Use this parameter in combination with 'filterModes' = true! -->
		<param name="analyzedModes" value="car" />
		<!-- Specifies over how many iterations the link volumes should be averaged that are used for the counts comparison. Use 1 or 0 to only use the link volumes of a single iteration. This values cannot be larger than the value specified for writeCountsInterval -->
		<param name="averageCountsOverIterations" value="5" />
		<!-- factor by which to re-scale the simulated values.  necessary when simulation runs with something different from 100%.  needs to be adapted manually -->
		<param name="countsScaleFactor" value="1.0" />
		<!-- distance to distanceFilterCenterNode to include counting stations. The unit of distance is the Euclidean distance implied by the coordinate system -->
		<param name="distanceFilter" value="null" />
		<!-- node id for center node of distance filter -->
		<param name="distanceFilterCenterNode" value="null" />
		<!-- If true, link counts from legs performed on modes not included in the 'analyzedModes' parameter are ignored. -->
		<param name="filterModes" value="false" />
		<!-- The Coordinates Reference System in which the coordinates are expressed in the input file. At import, the coordinates will be converted to the coordinate system defined in "global", and willbe converted back at export. If not specified, no conversion happens. -->
		<param name="inputCRS" value="null" />
		<!-- input file name to counts package -->
		<param name="inputCountsFile" value="null" />
		<!-- possible values: `html', `kml', `txt', `all' -->
		<param name="outputformat" value="txt" />
		<!-- Specifies how often the counts comparison should be calculated and written. -->
		<param name="writeCountsInterval" value="10" />
	</module>
	<module name="facilities" >
		<!-- If set to 'true', empty activity option will be created. -->
		<param name="addEmptyActivityOption" value="false" />
		<!-- Default is 'true'. In the case that a facility has no link assigned, the ActivityFacility can be assigned to the closest link. If there should be only one ActivityFacility per link and if no link-assignment should be done, set to 'false'.This will create a new ActivityFacility at the coordinate and the facility will not be assigned to a link. -->
		<param name="assigningLinksToFacilitiesIfMissing" value="true" />
		<!-- If set to 'true', opening time will be assigned to activity facilities from ActivityParams. Default is false. This will NOT override option 'addEmptyActivityOption'. -->
		<param name="assigningOpeningTime" value="false" />
		<!-- This defines how facilities should be created. Possible values: none fromFile setInScenario onePerActivityLocationInPlansFile  -->
		<param name="facilitiesSource" value="none" />
		<!-- A prefix to be used in activityFacility id. -->
		<param name="idPrefix" value="" />
		<!-- The Coordinates Reference System in which the coordinates are expressed in the input file. At import, the coordinates will be converted to the coordinate system defined in "global", and willbe converted back at export. If not specified, no conversion happens. -->
		<param name="inputCRS" value="null" />
		<param name="inputFacilitiesFile" value="facilities.xml" />
		<param name="inputFacilityAttributesFile" value="null" />
		<!-- Sets whether all activities on a link should be collected within one ActivityFacility. Default is 'true'. If set to 'false', for each coordinate found in the population's activities a separate ActivityFacility will be created. -->
		<param name="oneFacilityPerLink" value="true" />
		<!-- If set to 'true' (which is the default), the link and coordinate attributes are replaced by null reference in the activities, as this information is now available via the facility. -->
		<param name="removingLinksAndCoordinates" value="true" />
	</module>
	<module name="global" >
		<param name="coordinateSystem" value="Atlantis" />
		<param name="insistingOnDeprecatedConfigVersion" value="true" />
		<!-- "global" number of threads.  This number is used, e.g., for replanning, but NOT in the mobsim.  This can typically be set to as many cores as you have available, or possibly even slightly more. -->
		<param name="numberOfThreads" value="4" />
		<param name="randomSeed" value="4711" />
	</module>
	<module name="households" >
		<param name="inputFile" value="null" />
		<param name="inputHouseholdAttributesFile" value="null" />
	</module>
	<module name="linkStats" >
		<!-- Specifies over how many iterations the link volumes should be averaged that are used for the link statistics. Use 1 or 0 to only use the link volumes of a single iteration. This values cannot be larger than the value specified for writeLinkStatsInterval -->
		<param name="averageLinkStatsOverIterations" value="5" />
		<!-- Specifies how often the link stats should be calculated and written. Use 0 to disable the generation of link stats. -->
		<param name="writeLinkStatsInterval" value="10" />
	</module>
	<module name="network" >
		<!-- The Coordinates Reference System in which the coordinates are expressed in the input file. At import, the coordinates will be converted to the coordinate system defined in "global", and willbe converted back at export. If not specified, no conversion happens. -->
		<param name="inputCRS" value="null" />
		<param name="inputChangeEventsFile" value="null" />
		<param name="inputNetworkFile" value="network.xml" />
		<param name="laneDefinitionsFile" value="null" />
		<param name="timeVariantNetwork" value="false" />
	</module>
	<module name="parallelEventHandling" >
		<!-- Estimated number of events during mobsim run. An optional optimization hint for the framework. -->
		<param name="estimatedNumberOfEvents" value="null" />
		<!-- Number of threads for parallel events handler. _null_ means the framework decides by itself. 0 is currently not possible. -->
		<param name="numberOfThreads" value="null" />
		<!-- If enabled, each event handler is assigned to its own thread. Note that enabling this feature disabled the numberOfThreads option! This feature is still experimental! -->
		<param name="oneThreadPerHandler" value="false" />
		<!-- If enabled, it is ensured that all events that are created during a time step of the mobility simulation are processed before the next time step is simulated. E.g. neccessary when within-day replanning is used. -->
		<param name="synchronizeOnSimSteps" value="true" />
	</module>
	<module name="planCalcScore" >
		<!-- logit model scale parameter. default: 1.  Has name and default value for historical reasons (see Bryan Raney's phd thesis). -->
		<param name="BrainExpBeta" value="2.0" />
		<param name="PathSizeLogitBeta" value="1.0" />
		<!-- fraction of iterations at which MSA score averaging is started. The matsim theory department suggests to use this together with switching off choice set innovation (where a similar switch exists), but it has not been tested yet. -->
		<param name="fractionOfIterationsToStartScoreMSA" value="null" />
		<!-- new_score = (1-learningRate)*old_score + learningRate * score_from_mobsim.  learning rates close to zero emulate score averaging, but slow down initial convergence -->
		<param name="learningRate" value="1.0" />
		<!-- There used to be a plateau between duration=0 and duration=zeroUtilityDuration. This caused durations to evolve to zero once they were below zeroUtilityDuration, causing problems.  Only use this switch if you need to be backwards compatible with some old results.  (changed nov'13) -->
		<param name="usingOldScoringBelowZeroUtilityDuration" value="false" />
		<!-- write a plans file in each iteration directory which contains what each agent actually did, and the score it received. -->
		<param name="writeExperiencedPlans" value="true" />
		<parameterset type="scoringParameters" >
			<param name="earlyDeparture" value="0.0" />
			<param name="lateArrival" value="-18.0" />
			<param name="marginalUtilityOfMoney" value="1.0" />
			<param name="performing" value="6.0" />
			<param name="subpopulation" value="null" />
			<param name="utilityOfLineSwitch" value="-1.0" />
			<param name="waiting" value="0.0" />
			<param name="waitingPt" value="-6.0" />
			<parameterset type="activityParams" >
				<param name="activityType" value="dummy" />
				<param name="closingTime" value="undefined" />
				<param name="earliestEndTime" value="undefined" />
				<param name="latestStartTime" value="undefined" />
				<param name="minimalDuration" value="undefined" />
				<param name="openingTime" value="undefined" />
				<param name="priority" value="1.0" />
				<param name="scoringThisActivityAtAll" value="false" />
				<!-- typical duration of activity.  needs to be defined and non-zero.  in sec. -->
				<param name="typicalDuration" value="02:00:00" />
				<!-- method to compute score at typical duration.  Options: | uniform | relative | Use uniform for backwards compatibility (all activities same score; higher proba to drop long acts). -->
				<param name="typicalDurationScoreComputation" value="relative" />
			</parameterset>
			<parameterset type="activityParams" >
				<param name="activityType" value="car interaction" />
				<param name="closingTime" value="undefined" />
				<param name="earliestEndTime" value="undefined" />
				<param name="latestStartTime" value="undefined" />
				<param name="minimalDuration" value="undefined" />
				<param name="openingTime" value="undefined" />
				<param name="priority" value="1.0" />
				<param name="scoringThisActivityAtAll" value="false" />
				<!-- typical duration of activity.  needs to be defined and non-zero.  in sec. -->
				<param name="typicalDuration" value="undefined" />
				<!-- method to compute score at typical duration.  Options: | uniform | relative | Use uniform for backwards compatibility (all activities same score; higher proba to drop long acts). -->
				<param name="typicalDurationScoreComputation" value="relative" />
			</parameterset>
			<parameterset type="activityParams" >
				<param name="activityType" value="pt interaction" />
				<param name="closingTime" value="undefined" />
				<param name="earliestEndTime" value="undefined" />
				<param name="latestStartTime" value="undefined" />
				<param name="minimalDuration" value="undefined" />
				<param name="openingTime" value="undefined" />
				<param name="priority" value="1.0" />
				<param name="scoringThisActivityAtAll" value="false" />
				<!-- typical duration of activity.  needs to be defined and non-zero.  in sec. -->
				<param name="typicalDuration" value="undefined" />
				<!-- method to compute score at typical duration.  Options: | uniform | relative | Use uniform for backwards compatibility (all activities same score; higher proba to drop long acts). -->
				<param name="typicalDurationScoreComputation" value="relative" />
			</parameterset>
			<parameterset type="activityParams" >
				<param name="activityType" value="bike interaction" />
				<param name="closingTime" value="undefined" />
				<param name="earliestEndTime" value="undefined" />
				<param name="latestStartTime" value="undefined" />
				<param name="minimalDuration" value="undefined" />
				<param name="openingTime" value="undefined" />
				<param name="priority" value="1.0" />
				<param name="scoringThisActivityAtAll" value="false" />
				<!-- typical duration of activity.  needs to be defined and non-zero.  in sec. -->
				<param name="typicalDuration" value="undefined" />
				<!-- method to compute score at typical duration.  Options: | uniform | relative | Use uniform for backwards compatibility (all activities same score; higher proba to drop long acts). -->
				<param name="typicalDurationScoreComputation" value="relative" />
			</parameterset>
			<parameterset type="activityParams" >
				<param name="activityType" value="other interaction" />
				<param name="closingTime" value="undefined" />
				<param name="earliestEndTime" value="undefined" />
				<param name="latestStartTime" value="undefined" />
				<param name="minimalDuration" value="undefined" />
				<param name="openingTime" value="undefined" />
				<param name="priority" value="1.0" />
				<param name="scoringThisActivityAtAll" value="false" />
				<!-- typical duration of activity.  needs to be defined and non-zero.  in sec. -->
				<param name="typicalDuration" value="undefined" />
				<!-- method to compute score at typical duration.  Options: | uniform | relative | Use uniform for backwards compatibility (all activities same score; higher proba to drop long acts). -->
				<param name="typicalDurationScoreComputation" value="relative" />
			</parameterset>
			<parameterset type="activityParams" >
				<param name="activityType" value="walk interaction" />
				<param name="closingTime" value="undefined" />
				<param name="earliestEndTime" value="undefined" />
				<param name="latestStartTime" value="undefined" />
				<param name="minimalDuration" value="undefined" />
				<param name="openingTime" value="undefined" />
				<param name="priority" value="1.0" />
				<param name="scoringThisActivityAtAll" value="false" />
				<!-- typical duration of activity.  needs to be defined and non-zero.  in sec. -->
				<param name="typicalDuration" value="undefined" />
				<!-- method to compute score at typical duration.  Options: | uniform | relative | Use uniform for backwards compatibility (all activities same score; higher proba to drop long acts). -->
				<param name="typicalDurationScoreComputation" value="relative" />
			</parameterset>
			<parameterset type="activityParams" >
				<param name="activityType" value="h" />
				<param name="closingTime" value="23:59:59" />
				<param name="earliestEndTime" value="undefined" />
				<param name="latestStartTime" value="undefined" />
				<param name="minimalDuration" value="08:00:00" />
				<param name="openingTime" value="00:00:00" />
				<param name="priority" value="1.0" />
				<param name="scoringThisActivityAtAll" value="true" />
				<!-- typical duration of activity.  needs to be defined and non-zero.  in sec. -->
				<param name="typicalDuration" value="08:00:00" />
				<!-- method to compute score at typical duration.  Options: | uniform | relative | Use uniform for backwards compatibility (all activities same score; higher proba to drop long acts). -->
				<param name="typicalDurationScoreComputation" value="relative" />
			</parameterset>
			<parameterset type="activityParams" >
				<param name="activityType" value="w" />
				<param name="closingTime" value="23:59:59" />
				<param name="earliestEndTime" value="undefined" />
				<param name="latestStartTime" value="undefined" />
				<param name="minimalDuration" value="06:00:00" />
				<param name="openingTime" value="08:00:00" />
				<param name="priority" value="1.0" />
				<param name="scoringThisActivityAtAll" value="true" />
				<!-- typical duration of activity.  needs to be defined and non-zero.  in sec. -->
				<param name="typicalDuration" value="06:00:00" />
				<!-- method to compute score at typical duration.  Options: | uniform | relative | Use uniform for backwards compatibility (all activities same score; higher proba to drop long acts). -->
				<param name="typicalDurationScoreComputation" value="relative" />
			</parameterset>
			<parameterset type="activityParams" >
				<param name="activityType" value="ff_interaction" />
				<param name="closingTime" value="00:00:00" />
				<param name="earliestEndTime" value="undefined" />
				<param name="latestStartTime" value="undefined" />
				<param name="minimalDuration" value="00:00:00" />
				<param name="openingTime" value="08:00:00" />
				<param name="priority" value="1.0" />
				<param name="scoringThisActivityAtAll" value="true" />
				<!-- typical duration of activity.  needs to be defined and non-zero.  in sec. -->
				<param name="typicalDuration" value="00:02:00" />
				<!-- method to compute score at typical duration.  Options: | uniform | relative | Use uniform for backwards compatibility (all activities same score; higher proba to drop long acts). -->
				<param name="typicalDurationScoreComputation" value="relative" />
			</parameterset>
			<parameterset type="activityParams" >
				<param name="activityType" value="ow_interaction" />
				<param name="closingTime" value="00:00:00" />
				<param name="earliestEndTime" value="undefined" />
				<param name="latestStartTime" value="undefined" />
				<param name="minimalDuration" value="00:00:00" />
				<param name="openingTime" value="08:00:00" />
				<param name="priority" value="1.0" />
				<param name="scoringThisActivityAtAll" value="true" />
				<!-- typical duration of activity.  needs to be defined and non-zero.  in sec. -->
				<param name="typicalDuration" value="00:02:00" />
				<!-- method to compute score at typical duration.  Options: | uniform | relative | Use uniform for backwards compatibility (all activities same score; higher proba to drop long acts). -->
				<param name="typicalDurationScoreComputation" value="relative" />
			</parameterset>
			<parameterset type="activityParams" >
				<param name="activityType" value="tw_interaction" />
				<param name="closingTime" value="00:00:00" />
				<param name="earliestEndTime" value="undefined" />
				<param name="latestStartTime" value="undefined" />
				<param name="minimalDuration" value="00:00:00" />
				<param name="openingTime" value="08:00:00" />
				<param name="priority" value="1.0" />
				<param name="scoringThisActivityAtAll" value="true" />
				<!-- typical duration of activity.  needs to be defined and non-zero.  in sec. -->
				<param name="typicalDuration" value="00:02:00" />
				<!-- method to compute score at typical duration.  Options: | uniform | relative | Use uniform for backwards compatibility (all activities same score; higher proba to drop long acts). -->
				<param name="typicalDurationScoreComputation" value="relative" />
			</parameterset>
			<parameterset type="modeParams" >
				<!-- [utils] alternative-specific constant.  no guarantee that this is used anywhere. default=0 to be backwards compatible for the time being -->
				<param name="constant" value="-0.4" />
				<!-- [utils/m] utility of walking per m, normally negative.  this is on top of the time (dis)utility. -->
				<param name="marginalUtilityOfDistance_util_m" value="0.0" />
				<!-- [utils/hr] additional marginal utility of traveling.  normally negative.  this comes on top of the opportunity cost of time -->
				<param name="marginalUtilityOfTraveling_util_hr" value="-6.0" />
				<param name="mode" value="car" />
				<!-- [unit_of_money/m] conversion of distance into money. Normally negative. -->
				<param name="monetaryDistanceRate" value="0.0" />
			</parameterset>
			<parameterset type="modeParams" >
				<!-- [utils] alternative-specific constant.  no guarantee that this is used anywhere. default=0 to be backwards compatible for the time being -->
				<param name="constant" value="-4.0" />
				<!-- [utils/m] utility of walking per m, normally negative.  this is on top of the time (dis)utility. -->
				<param name="marginalUtilityOfDistance_util_m" value="0.0" />
				<!-- [utils/hr] additional marginal utility of traveling.  normally negative.  this comes on top of the opportunity cost of time -->
				<param name="marginalUtilityOfTraveling_util_hr" value="-6.0" />
				<param name="mode" value="pt" />
				<!-- [unit_of_money/m] conversion of distance into money. Normally negative. -->
				<param name="monetaryDistanceRate" value="0.0" />
			</parameterset>
			<parameterset type="modeParams" >
				<!-- [utils] alternative-specific constant.  no guarantee that this is used anywhere. default=0 to be backwards compatible for the time being -->
				<param name="constant" value="-0.0" />
				<!-- [utils/m] utility of walking per m, normally negative.  this is on top of the time (dis)utility. -->
				<param name="marginalUtilityOfDistance_util_m" value="0.0" />
				<!-- [utils/hr] additional marginal utility of traveling.  normally negative.  this comes on top of the opportunity cost of time -->
				<param name="marginalUtilityOfTraveling_util_hr" value="-6.0" />
				<param name="mode" value="walk" />
				<!-- [unit_of_money/m] conversion of distance into money. Normally negative. -->
				<param name="monetaryDistanceRate" value="0.0" />
			</parameterset>
			<parameterset type="modeParams" >
				<!-- [utils] alternative-specific constant.  no guarantee that this is used anywhere. default=0 to be backwards compatible for the time being -->
				<param name="constant" value="-0.4" />
				<!-- [utils/m] utility of walking per m, normally negative.  this is on top of the time (dis)utility. -->
				<param name="marginalUtilityOfDistance_util_m" value="0.0" />
				<!-- [utils/hr] additional marginal utility of traveling.  normally negative.  this comes on top of the opportunity cost of time -->
				<param name="marginalUtilityOfTraveling_util_hr" value="-26.0" />
				<param name="mode" value="bike" />
				<!-- [unit_of_money/m] conversion of distance into money. Normally negative. -->
				<param name="monetaryDistanceRate" value="0.0" />
			</parameterset>
			<parameterset type="modeParams" >
				<!-- [utils] alternative-specific constant.  no guarantee that this is used anywhere. default=0 to be backwards compatible for the time being -->
				<param name="constant" value="0.0" />
				<!-- [utils/m] utility of walking per m, normally negative.  this is on top of the time (dis)utility. -->
				<param name="marginalUtilityOfDistance_util_m" value="0.0" />
				<!-- [utils/hr] additional marginal utility of traveling.  normally negative.  this comes on top of the opportunity cost of time -->
				<param name="marginalUtilityOfTraveling_util_hr" value="-6.0" />
				<param name="mode" value="ride" />
				<!-- [unit_of_money/m] conversion of distance into money. Normally negative. -->
				<param name="monetaryDistanceRate" value="0.0" />
			</parameterset>
			<parameterset type="modeParams" >
				<!-- [utils] alternative-specific constant.  no guarantee that this is used anywhere. default=0 to be backwards compatible for the time being -->
				<param name="constant" value="0.0" />
				<!-- [utils/m] utility of walking per m, normally negative.  this is on top of the time (dis)utility. -->
				<param name="marginalUtilityOfDistance_util_m" value="0.0" />
				<!-- [utils/hr] additional marginal utility of traveling.  normally negative.  this comes on top of the opportunity cost of time -->
				<param name="marginalUtilityOfTraveling_util_hr" value="-6.0" />
				<param name="mode" value="other" />
				<!-- [unit_of_money/m] conversion of distance into money. Normally negative. -->
				<param name="monetaryDistanceRate" value="0.0" />
			</parameterset>
			<parameterset type="modeParams" >
				<!-- [utils] alternative-specific constant.  no guarantee that this is used anywhere. default=0 to be backwards compatible for the time being -->
				<param name="constant" value="0.0" />
				<!-- [utils/m] utility of walking per m, normally negative.  this is on top of the time (dis)utility. -->
				<param name="marginalUtilityOfDistance_util_m" value="0.0" />
				<!-- [utils/hr] additional marginal utility of traveling.  normally negative.  this comes on top of the opportunity cost of time -->
				<param name="marginalUtilityOfTraveling_util_hr" value="-6.0" />
				<param name="mode" value="access_walk_tw" />
				<!-- [unit_of_money/m] conversion of distance into money. Normally negative. -->
				<param name="monetaryDistanceRate" value="0.0" />
			</parameterset>
			<parameterset type="modeParams" >
				<!-- [utils] alternative-specific constant.  no guarantee that this is used anywhere. default=0 to be backwards compatible for the time being -->
				<param name="constant" value="0.0" />
				<!-- [utils/m] utility of walking per m, normally negative.  this is on top of the time (dis)utility. -->
				<param name="marginalUtilityOfDistance_util_m" value="0.0" />
				<!-- [utils/hr] additional marginal utility of traveling.  normally negative.  this comes on top of the opportunity cost of time -->
				<param name="marginalUtilityOfTraveling_util_hr" value="-6.0" />
				<param name="mode" value="egress_walk_tw" />
				<!-- [unit_of_money/m] conversion of distance into money. Normally negative. -->
				<param name="monetaryDistanceRate" value="0.0" />
			</parameterset>
			<parameterset type="modeParams" >
				<!-- [utils] alternative-specific constant.  no guarantee that this is used anywhere. default=0 to be backwards compatible for the time being -->
				<param name="constant" value="0.0" />
				<!-- [utils/m] utility of walking per m, normally negative.  this is on top of the time (dis)utility. -->
				<param name="marginalUtilityOfDistance_util_m" value="0.0" />
				<!-- [utils/hr] additional marginal utility of traveling.  normally negative.  this comes on top of the opportunity cost of time -->
				<param name="marginalUtilityOfTraveling_util_hr" value="-6.0" />
				<param name="mode" value="twoway_vehicle" />
				<!-- [unit_of_money/m] conversion of distance into money. Normally negative. -->
				<param name="monetaryDistanceRate" value="0.0" />
			</parameterset>
			<parameterset type="modeParams" >
				<!-- [utils] alternative-specific constant.  no guarantee that this is used anywhere. default=0 to be backwards compatible for the time being -->
				<param name="constant" value="0.0" />
				<!-- [utils/m] utility of walking per m, normally negative.  this is on top of the time (dis)utility. -->
				<param name="marginalUtilityOfDistance_util_m" value="0.0" />
				<!-- [utils/hr] additional marginal utility of traveling.  normally negative.  this comes on top of the opportunity cost of time -->
				<param name="marginalUtilityOfTraveling_util_hr" value="0.0" />
				<param name="mode" value="access_walk_ff" />
				<!-- [unit_of_money/m] conversion of distance into money. Normally negative. -->
				<param name="monetaryDistanceRate" value="0.0" />
			</parameterset>
			<parameterset type="modeParams" >
				<!-- [utils] alternative-specific constant.  no guarantee that this is used anywhere. default=0 to be backwards compatible for the time being -->
				<param name="constant" value="0.0" />
				<!-- [utils/m] utility of walking per m, normally negative.  this is on top of the time (dis)utility. -->
				<param name="marginalUtilityOfDistance_util_m" value="0.0" />
				<!-- [utils/hr] additional marginal utility of traveling.  normally negative.  this comes on top of the opportunity cost of time -->
				<param name="marginalUtilityOfTraveling_util_hr" value="0.0" />
				<param name="mode" value="egress_walk_ff" />
				<!-- [unit_of_money/m] conversion of distance into money. Normally negative. -->
				<param name="monetaryDistanceRate" value="0.0" />
			</parameterset>
			<parameterset type="modeParams" >
				<!-- [utils] alternative-specific constant.  no guarantee that this is used anywhere. default=0 to be backwards compatible for the time being -->
				<param name="constant" value="0.0" />
				<!-- [utils/m] utility of walking per m, normally negative.  this is on top of the time (dis)utility. -->
				<param name="marginalUtilityOfDistance_util_m" value="0.0" />
				<!-- [utils/hr] additional marginal utility of traveling.  normally negative.  this comes on top of the opportunity cost of time -->
				<param name="marginalUtilityOfTraveling_util_hr" value="0.0" />
				<param name="mode" value="freefloating_vehicle" />
				<!-- [unit_of_money/m] conversion of distance into money. Normally negative. -->
				<param name="monetaryDistanceRate" value="0.0" />
			</parameterset>
			<parameterset type="modeParams" >
				<!-- [utils] alternative-specific constant.  no guarantee that this is used anywhere. default=0 to be backwards compatible for the time being -->
				<param name="constant" value="0.0" />
				<!-- [utils/m] utility of walking per m, normally negative.  this is on top of the time (dis)utility. -->
				<param name="marginalUtilityOfDistance_util_m" value="0.0" />
				<!-- [utils/hr] additional marginal utility of traveling.  normally negative.  this comes on top of the opportunity cost of time -->
				<param name="marginalUtilityOfTraveling_util_hr" value="0.0" />
				<param name="mode" value="access_walk_ow" />
				<!-- [unit_of_money/m] conversion of distance into money. Normally negative. -->
				<param name="monetaryDistanceRate" value="0.0" />
			</parameterset>
			<parameterset type="modeParams" >
				<!-- [utils] alternative-specific constant.  no guarantee that this is used anywhere. default=0 to be backwards compatible for the time being -->
				<param name="constant" value="0.0" />
				<!-- [utils/m] utility of walking per m, normally negative.  this is on top of the time (dis)utility. -->
				<param name="marginalUtilityOfDistance_util_m" value="0.0" />
				<!-- [utils/hr] additional marginal utility of traveling.  normally negative.  this comes on top of the opportunity cost of time -->
				<param name="marginalUtilityOfTraveling_util_hr" value="0.0" />
				<param name="mode" value="egress_walk_ow" />
				<!-- [unit_of_money/m] conversion of distance into money. Normally negative. -->
				<param name="monetaryDistanceRate" value="0.0" />
			</parameterset>
			<parameterset type="modeParams" >
				<!-- [utils] alternative-specific constant.  no guarantee that this is used anywhere. default=0 to be backwards compatible for the time being -->
				<param name="constant" value="0.0" />
				<!-- [utils/m] utility of walking per m, normally negative.  this is on top of the time (dis)utility. -->
				<param name="marginalUtilityOfDistance_util_m" value="0.0" />
				<!-- [utils/hr] additional marginal utility of traveling.  normally negative.  this comes on top of the opportunity cost of time -->
				<param name="marginalUtilityOfTraveling_util_hr" value="0.0" />
				<param name="mode" value="oneway_vehicle" />
				<!-- [unit_of_money/m] conversion of distance into money. Normally negative. -->
				<param name="monetaryDistanceRate" value="0.0" />
			</parameterset>
		</parameterset>
	</module>
	<module name="plans" >
		<!-- String: minOfDurationAndEndTime tryEndTimeThenDuration endTimeOnly. Anything besides minOfDurationAndEndTime will internally use a different (simpler) version of the TimeAllocationMutator. -->
		<param name="activityDurationInterpretation" value="tryEndTimeThenDuration" />
		<!-- The Coordinates Reference System in which the coordinates are expressed in the input file. At import, the coordinates will be converted to the coordinate system defined in "global", and willbe converted back at export. If not specified, no conversion happens. -->
		<param name="inputCRS" value="null" />
		<!-- Path to a file containing person attributes (required file format: ObjectAttributes). -->
		<param name="inputPersonAttributesFile" value="plansAttributes.xml" />
		<param name="inputPlansFile" value="plans.xml" />
		<!-- Defines how routes are stored in memory. Currently supported: LinkNetworkRoute, CompressedNetworkRoute. -->
		<param name="networkRouteType" value="LinkNetworkRoute" />
		<!-- (not tested) will remove plan attributes that are presumably not used, such as activityStartTime. default=false -->
		<param name="removingUnnecessaryPlanAttributes" value="false" />
		<!-- Name of the (Object)Attribute defining the subpopulation to which pertains a Person (as freight, through traffic, etc.). The attribute must be of String type.  Change away from default only in desperate situations. -->
		<param name="subpopulationAttributeName" value="subpopulation" />
	</module>
	<module name="planscalcroute" >
		<!-- All the modes for which the router is supposed to generate network routes (like car) -->
		<param name="networkModes" value="car" />
		<parameterset type="teleportedModeParameters" >
			<param name="beelineDistanceFactor" value="1.3" />
			<param name="mode" value="bike" />
			<!-- Free-speed factor for a teleported mode. Travel time = teleportedModeFreespeedFactor * <freespeed car travel time>. Insert a line like this for every such mode. Please do not set teleportedModeFreespeedFactor as well as teleportedModeSpeed for the same mode, but if you do, +teleportedModeFreespeedFactor wins over teleportedModeSpeed. -->
			<param name="teleportedModeFreespeedFactor" value="null" />
			<!-- Speed for a teleported mode. Travel time = (<beeline distance> * beelineDistanceFactor) / teleportedModeSpeed. Insert a line like this for every such mode. -->
			<param name="teleportedModeSpeed" value="4.166666666666667" />
		</parameterset>
		<parameterset type="teleportedModeParameters" >
			<param name="beelineDistanceFactor" value="1.3" />
			<param name="mode" value="walk" />
			<!-- Free-speed factor for a teleported mode. Travel time = teleportedModeFreespeedFactor * <freespeed car travel time>. Insert a line like this for every such mode. Please do not set teleportedModeFreespeedFactor as well as teleportedModeSpeed for the same mode, but if you do, +teleportedModeFreespeedFactor wins over teleportedModeSpeed. -->
			<param name="teleportedModeFreespeedFactor" value="null" />
			<!-- Speed for a teleported mode. Travel time = (<beeline distance> * beelineDistanceFactor) / teleportedModeSpeed. Insert a line like this for every such mode. -->
			<param name="teleportedModeSpeed" value="0.8333333333333333" />
		</parameterset>
		<parameterset type="teleportedModeParameters" >
			<param name="beelineDistanceFactor" value="1.3" />
			<param name="mode" value="undefined" />
			<!-- Free-speed factor for a teleported mode. Travel time = teleportedModeFreespeedFactor * <freespeed car travel time>. Insert a line like this for every such mode. Please do not set teleportedModeFreespeedFactor as well as teleportedModeSpeed for the same mode, but if you do, +teleportedModeFreespeedFactor wins over teleportedModeSpeed. -->
			<param name="teleportedModeFreespeedFactor" value="null" />
			<!-- Speed for a teleported mode. Travel time = (<beeline distance> * beelineDistanceFactor) / teleportedModeSpeed. Insert a line like this for every such mode. -->
			<param name="teleportedModeSpeed" value="13.88888888888889" />
		</parameterset>
		<parameterset type="teleportedModeParameters" >
			<param name="beelineDistanceFactor" value="1.3" />
			<param name="mode" value="pt" />
			<!-- Free-speed factor for a teleported mode. Travel time = teleportedModeFreespeedFactor * <freespeed car travel time>. Insert a line like this for every such mode. Please do not set teleportedModeFreespeedFactor as well as teleportedModeSpeed for the same mode, but if you do, +teleportedModeFreespeedFactor wins over teleportedModeSpeed. -->
			<param name="teleportedModeFreespeedFactor" value="null" />
			<!-- Speed for a teleported mode. Travel time = (<beeline distance> * beelineDistanceFactor) / teleportedModeSpeed. Insert a line like this for every such mode. -->
			<param name="teleportedModeSpeed" value="4.5" />
		</parameterset>
	</module>
	<module name="ptCounts" >
		<!-- factor by which to re-scale the simulated values.  necessary when simulation runs with something different from 100%.  needs to be adapted manually -->
		<param name="countsScaleFactor" value="1.0" />
		<!-- distance to distanceFilterCenterNode to include counting stations. The unit of distance is the Euclidean distance implied by the coordinate system -->
		<param name="distanceFilter" value="null" />
		<!-- node id for center node of distance filter -->
		<param name="distanceFilterCenterNode" value="null" />
		<!-- input file containing the alighting (getting off) counts for pt -->
		<param name="inputAlightCountsFile" value="null" />
		<!-- input file containing the boarding (getting on) counts for pt -->
		<param name="inputBoardCountsFile" value="null" />
		<!-- input file containing the occupancy counts for pt -->
		<param name="inputOccupancyCountsFile" value="null" />
		<!-- possible values: `html', `kml', `txt', `all' -->
		<param name="outputformat" value="null" />
		<!-- every how many iterations (starting with 0) counts comparisons are generated -->
		<param name="ptCountsInterval" value="10" />
	</module>
	<module name="qsim" >
		<!-- If set to true, creates a vehicle for each person corresponding to every network mode. However, this will be overridden if vehicle source is fromVehiclesData. -->
		<param name="creatingVehiclesForAllNetworkModes" value="true" />
		<param name="endTime" value="00:00:00" />
		<param name="flowCapacityFactor" value="1.0" />
		<!-- decides if waiting vehicles enter the network after or before the already driving vehicles were moved. Default: false -->
		<param name="insertingWaitingVehiclesBeforeDrivingVehicles" value="false" />
		<!-- If link dynamics is set as SeepageQ, set to false if all seep modes should perform seepage. Default is true (better option). -->
		<param name="isRestrictingSeepage" value="true" />
		<!-- If link dynamics is set as SeepageQ, set to true if seep mode do not consumes any space on the link. Default is false. -->
		<param name="isSeepModeStorageFree" value="false" />
		<!-- default: FIFO; options: FIFO PassingQ SeepageQ -->
		<param name="linkDynamics" value="FIFO" />
		<!-- The (initial) width of the links of the network. Use positive floating point values. This is used only for visualisation. -->
		<param name="linkWidth" value="30.0" />
		<!-- [comma-separated list] Defines which modes are congested modes. Technically, these are the modes that the departure handler of the netsimengine handles.  Effective cell size, effective lane width, flow capacity factor, and storage capacity factor need to be set with diligence.  Need to be vehicular modes to make sense. -->
		<param name="mainMode" value="car,oneway_vehicle,twoway_vehicle,freefloating_vehicle" />
		<!-- Shortens a link in the visualization, i.e. its start and end point are moved into towards the center. Does not affect traffic flow.  -->
		<param name="nodeOffset" value="0.0" />
		<!-- Number of threads used for the QSim.  Note that this setting is independent from the "global" threads setting.  In contrast to earlier versions, the non-parallel special version is no longer there. -->
		<param name="numberOfThreads" value="1" />
		<!-- Boolean. `true': stuck vehicles are removed, aborting the plan; `false': stuck vehicles are forced into the next link. `false' is probably the better choice. -->
		<param name="removeStuckVehicles" value="false" />
		<!-- If link dynamics is set as SeepageQ, set a seep mode. Default is bike. -->
		<param name="seepMode" value="bike" />
		<!-- Possible values: minOfEndtimeAndMobsimFinished, onlyUseEndtime -->
		<param name="simEndtimeInterpretation" value="null" />
		<!-- Options: maxOfStarttimeAndEarliestActivityEnd onlyUseStarttime  -->
		<param name="simStarttimeInterpretation" value="maxOfStarttimeAndEarliestActivityEnd" />
		<!-- snapshotStyle. One of: equiDist queue withHoles withHolesAndShowHoles kinematicWaves  -->
		<param name="snapshotStyle" value="equiDist" />
		<param name="snapshotperiod" value="00:00:00" />
		<param name="startTime" value="undefined" />
		<param name="storageCapacityFactor" value="10.0" />
		<!-- time in seconds.  Time after which the frontmost vehicle on a link is called `stuck' if it does not move. -->
		<param name="stuckTime" value="10.0" />
		<param name="timeStepSize" value="00:00:01" />
		<!-- options: queue withHoles kinematicWaves  -->
		<param name="trafficDynamics" value="queue" />
		<!-- Set this parameter to true if lanes should be used, false if not. -->
		<param name="useLanes" value="false" />
		<!-- If a route does not reference a vehicle, agents will use the vehicle with the same id as their own. -->
		<param name="usePersonIdForMissingVehicleId" value="true" />
		<!-- If false, the qsim accumulates fractional flows up to one flow unit in every time step.  If true, flows are updated only if an agent wants to enter the link or an agent is added to buffer. Default is true. -->
		<param name="usingFastCapacityUpdate" value="true" />
		<!-- if the qsim should use as many runners as there are threads (Christoph's dissertation version) or more of them, together with a thread pool (seems to be faster in some situations, but is not tested). -->
		<param name="usingThreadpool" value="true" />
		<!-- Defines what happens if an agent wants to depart, but the specified vehicle is not available. One of: teleport wait exception  -->
		<param name="vehicleBehavior" value="teleport" />
		<!-- If vehicles should all be the same default vehicle, or come from the vehicles file, or something else.  Possible values:  defaultVehicle modeVehicleTypesFromVehiclesData fromVehiclesData -->
		<param name="vehiclesSource" value="defaultVehicle" />
	</module>
	<module name="strategy" >
		<!-- the external executable will be called with a config file as argument.  This is the pathname to a possible skeleton config, to which additional information will be added.  Can be null. -->
		<param name="ExternalExeConfigTemplate" value="null" />
		<!-- time out value (in seconds) after which matsim will consider the external strategy as failed -->
		<param name="ExternalExeTimeOut" value="3600" />
		<!-- root directory for temporary files generated by the external executable. Provided as a service; I don't think this is used by MATSim. -->
		<param name="ExternalExeTmpFileRootDir" value="null" />
		<!-- fraction of iterations where innovative strategies are switched off.  Something link 0.8 should be good.  E.g. if you run from iteration 400 to iteration 500, innovation is switched off at iteration 480 -->
		<param name="fractionOfIterationsToDisableInnovation" value="Infinity" />
		<!-- maximum number of plans per agent.  ``0'' means ``infinity''.  Currently (2010), ``5'' is a good number -->
		<param name="maxAgentPlanMemorySize" value="5" />
		<!-- strategyName of PlanSelector for plans removal.  Possible defaults: WorstPlanSelector SelectRandom SelectExpBetaForRemoval ChangeExpBetaForRemoval PathSizeLogitSelectorForRemoval . The current default, WorstPlanSelector is not a good choice from a discrete choice theoretical perspective. Alternatives, however, have not been systematically tested. kai, feb'12 -->
		<param name="planSelectorForRemoval" value="WorstPlanSelector" />
		<parameterset type="strategysettings" >
			<!-- iteration after which strategy will be disabled.  most useful for ``innovative'' strategies (new routes, new times, ...). Normally, better use fractionOfIterationsToDisableInnovation -->
			<param name="disableAfterIteration" value="-1" />
			<!-- path to external executable (if applicable) -->
			<param name="executionPath" value="null" />
			<!-- strategyName of strategy.  Possible default names: SelectRandomBestScoreKeepLastSelectedChangeExpBetaSelectExpBetaSelectPathSizeLogit (selectors), ReRouteTimeAllocationMutatorTimeAllocationMutator_ReRouteChangeSingleTripModeChangeTripModeSubtourModeChoice (innovative strategies). -->
			<param name="strategyName" value="SelectExpBeta" />
			<!-- subpopulation to which the strategy applies. "null" refers to the default population, that is, the set of persons for which no explicit subpopulation is defined (ie no subpopulation attribute) -->
			<param name="subpopulation" value="null" />
			<!-- weight of a strategy: for each agent, a strategy will be selected with a probability proportional to its weight -->
			<param name="weight" value="0.0" />
		</parameterset>
		<parameterset type="strategysettings" >
			<!-- iteration after which strategy will be disabled.  most useful for ``innovative'' strategies (new routes, new times, ...). Normally, better use fractionOfIterationsToDisableInnovation -->
			<param name="disableAfterIteration" value="1000" />
			<!-- path to external executable (if applicable) -->
			<param name="executionPath" value="null" />
			<!-- strategyName of strategy.  Possible default names: SelectRandomBestScoreKeepLastSelectedChangeExpBetaSelectExpBetaSelectPathSizeLogit (selectors), ReRouteTimeAllocationMutatorTimeAllocationMutator_ReRouteChangeSingleTripModeChangeTripModeSubtourModeChoice (innovative strategies). -->
			<param name="strategyName" value="RandomTripToCarsharingStrategy" />
			<!-- subpopulation to which the strategy applies. "null" refers to the default population, that is, the set of persons for which no explicit subpopulation is defined (ie no subpopulation attribute) -->
			<param name="subpopulation" value="null" />
			<!-- weight of a strategy: for each agent, a strategy will be selected with a probability proportional to its weight -->
			<param name="weight" value="0.5" />
		</parameterset>
		<parameterset type="strategysettings" >
			<!-- iteration after which strategy will be disabled.  most useful for ``innovative'' strategies (new routes, new times, ...). Normally, better use fractionOfIterationsToDisableInnovation -->
			<param name="disableAfterIteration" value="1000" />
			<!-- path to external executable (if applicable) -->
			<param name="executionPath" value="null" />
			<!-- strategyName of strategy.  Possible default names: SelectRandomBestScoreKeepLastSelectedChangeExpBetaSelectExpBetaSelectPathSizeLogit (selectors), ReRouteTimeAllocationMutatorTimeAllocationMutator_ReRouteChangeSingleTripModeChangeTripModeSubtourModeChoice (innovative strategies). -->
			<param name="strategyName" value="CarsharingSubtourModeChoiceStrategy" />
			<!-- subpopulation to which the strategy applies. "null" refers to the default population, that is, the set of persons for which no explicit subpopulation is defined (ie no subpopulation attribute) -->
			<param name="subpopulation" value="null" />
			<!-- weight of a strategy: for each agent, a strategy will be selected with a probability proportional to its weight -->
			<param name="weight" value="1.0" />
		</parameterset>
		<parameterset type="strategysettings" >
			<!-- iteration after which strategy will be disabled.  most useful for ``innovative'' strategies (new routes, new times, ...). Normally, better use fractionOfIterationsToDisableInnovation -->
			<param name="disableAfterIteration" value="1000" />
			<!-- path to external executable (if applicable) -->
			<param name="executionPath" value="null" />
			<!-- strategyName of strategy.  Possible default names: SelectRandomBestScoreKeepLastSelectedChangeExpBetaSelectExpBetaSelectPathSizeLogit (selectors), ReRouteTimeAllocationMutatorTimeAllocationMutator_ReRouteChangeSingleTripModeChangeTripModeSubtourModeChoice (innovative strategies). -->
			<param name="strategyName" value="SubtourModeChoice" />
			<!-- subpopulation to which the strategy applies. "null" refers to the default population, that is, the set of persons for which no explicit subpopulation is defined (ie no subpopulation attribute) -->
			<param name="subpopulation" value="null" />
			<!-- weight of a strategy: for each agent, a strategy will be selected with a probability proportional to its weight -->
			<param name="weight" value="1.0" />
		</parameterset>
	</module>
	<module name="subtourModeChoice" >
		<!-- Only for backwards compatibility.  Defines if only trips from modes list should change mode, or all trips.  Options: fromAllModesToSpecifiedModes fromSpecifiedModesToSpecifiedModes  -->
		<param name="behavior" value="fromAllModesToSpecifiedModes" />
		<!-- Defines the chain-based modes, seperated by commas -->
		<param name="chainBasedModes" value="car,bike" />
		<!-- Defines whether car availability must be considered or not. A agent has no car only if it has no license, or never access to a car -->
		<param name="considerCarAvailability" value="true" />
		<!-- Defines all the modes available, including chain-based modes, seperated by commas -->
		<param name="modes" value="car,bike,pt,walk" />
	</module>
	<module name="transit" >
		<!-- The Coordinates Reference System in which the coordinates are expressed in the input file. At import, the coordinates will be converted to the coordinate system defined in "global", and willbe converted back at export. If not specified, no conversion happens. -->
		<param name="inputScheduleCRS" value="null" />
		<!-- Optional input file containing additional attributes for transit lines, stored as ObjectAttributes. -->
		<param name="transitLinesAttributesFile" value="null" />
		<!-- Comma-separated list of transportation modes that are handled as transit. Defaults to 'pt'. -->
		<param name="transitModes" value="pt" />
		<!-- Input file containing the transit schedule to be simulated. -->
		<param name="transitScheduleFile" value="null" />
		<!-- Optional input file containing additional attributes for transit stop facilities, stored as ObjectAttributes. -->
		<param name="transitStopsAttributesFile" value="null" />
		<!-- Set this parameter to true if transit should be simulated, false if not. -->
		<param name="useTransit" value="false" />
		<!-- Input file containing the vehicles used by the departures in the transit schedule. -->
		<param name="vehiclesFile" value="null" />
	</module>
	<module name="transitRouter" >
		<!-- additional time the router allocates when a line switch happens. Can be interpreted as a 'safety' time that agents need to safely transfer from one line to another -->
		<param name="additionalTransferTime" value="0.0" />
		<!-- Factor with which direct walk generalized cost is multiplied before it is compared to the pt generalized cost.  Set to a very high value to reduce direct walk results. -->
		<param name="directWalkFactor" value="1.0" />
		<!-- step size to increase searchRadius if no stops are found -->
		<param name="extensionRadius" value="200.0" />
		<!-- maximum beeline distance between stops that agents could transfer to by walking -->
		<param name="maxBeelineWalkConnectionDistance" value="100.0" />
		<!-- the radius in which stop locations are searched, given a start or target coordinate -->
		<param name="searchRadius" value="1000.0" />
	</module>
	<module name="travelTimeCalculator" >
		<!-- Transport modes that will be respected by the travel time collector. 'car' is default, which includes also busses from the pt simulation module. Use this parameter in combination with 'filterModes' = true! -->
		<param name="analyzedModes" value="car" />
		<param name="calculateLinkToLinkTravelTimes" value="false" />
		<param name="calculateLinkTravelTimes" value="true" />
		<!-- If true, link travel times from legs performed on modes not included in the 'analyzedModes' parameter are ignored. -->
		<param name="filterModes" value="false" />
		<!-- The lenght (in sec) of the time period that is splited into time bins; an additional time bin is created to aggregate all travel times collected after maxTime -->
		<param name="maxTime" value="108000" />
		<!-- If true, link travel times are measured and calculated separately for each mode in analyzedModes. Other modes are ignored. If true, filterModes has no effect. -->
		<param name="separateModes" value="false" />
		<!-- How to deal with congested time bins that have no link entry events. `optimistic' assumes free speed (too optimistic); 'experimental_LastMile' is experimental and probably too pessimistic. -->
		<param name="travelTimeAggregator" value="optimistic" />
		<!-- The size of the time bin (in sec) into which the link travel times are aggregated for the router -->
		<param name="travelTimeBinSize" value="900" />
		<!-- possible values: TravelTimeCalculatorArray TravelTimeCalculatorHashMap  -->
		<param name="travelTimeCalculator" value="TravelTimeCalculatorArray" />
		<!-- How to deal with link entry times at different positions during the time bin. Currently supported: average, linearinterpolation -->
		<param name="travelTimeGetter" value="average" />
	</module>
	<module name="vehicles" >
		<param name="vehiclesFile" value="null" />
	</module>
	<module name="vspExperimental" >
		<!-- (do not use except of you have to) There was a problem with pt interaction scoring.  Some people solved it by overwriting the parameters of the pt interaction activity type.  Doing this now throws an Exception.  If you still insist on doing this, set the following to true. -->
		<param name="isAbleToOverwritePtInteractionParams" value="false" />
		<param name="isGeneratingBoardingDeniedEvent" value="false" />
		<!-- if an approximation of the opportunity cost of time is included into the radius calculation for location choice.`true' will be faster, but it is an approximation.  Default is `true'; `false' is available for backwards compatibility. -->
		<param name="isUsingOpportunityCostOfTimeForLocationChoice" value="true" />
		<param name="logitScaleParamForPlansRemoval" value="1.0" />
		<!-- Options: | ignore | info | warn | abort | .  When violating VSP defaults, this results in nothing, logfile infos, logfile warnings, or aborts.  Members of VSP should use `abort' or talk to kai. -->
		<param name="vspDefaultsCheckingLevel" value="ignore" />
		<!-- if true then writes output_events in output directory.  default is `false'. Will only work when lastIteration is multiple of events writing interval -->
		<param name="writingOutputEvents" value="true" />
	</module>

</config>

2018-06-27 09:43:44,717  INFO ControlerUtils:63 Complete config dump done.
2018-06-27 09:43:44,718  INFO ControlerUtils:64 Checking consistency of config...
2018-06-27 09:43:44,719  WARN ControlerConfigGroup:365 setting overwriting behavior to overwriteExistingFiles
2018-06-27 09:43:44,722  WARN ControlerConfigGroup:366 this is not recommended, as it might result in a directory containing output from several model runs
2018-06-27 09:43:44,723  WARN ControlerConfigGroup:367 prefer the options deleteDirectoryIfExists or failIfDirectoryExists
2018-06-27 09:43:44,725  INFO VspConfigConsistencyCheckerImpl:58 NOT running vsp config consistency check because vsp defaults checking level is set to IGNORE
2018-06-27 09:43:44,726  INFO ControlerUtils:66 Checking consistency of config done.
2018-06-27 09:43:44,835 DEBUG NetworkRoutingProvider:75 requesting network routing module with routingMode=car;	mode=car
2018-06-27 09:43:44,846 DEBUG NetworkRoutingProvider:75 requesting network routing module with routingMode=car;	mode=car
2018-06-27 09:43:44,847 DEBUG NetworkRoutingProvider:75 requesting network routing module with routingMode=car;	mode=car
2018-06-27 09:43:44,848 DEBUG NetworkRoutingProvider:75 requesting network routing module with routingMode=car;	mode=car
2018-06-27 09:43:44,849  INFO NetworkImpl:426 building QuadTree for nodes: xrange(-501.0,1501.0); yrange(-501.0,501.0)
2018-06-27 09:43:44,851  INFO NetworkImpl:435 Building QuadTree took 0.002 seconds.
2018-06-27 09:43:45,090  INFO Counter:70 [PersonPrepareForSim] handled person # 1
2018-06-27 09:43:45,090  INFO Counter:70 [PersonPrepareForSim] handled person # 4
2018-06-27 09:43:45,090  INFO Counter:70 [PersonPrepareForSim] handled person # 2
2018-06-27 09:43:45,093  INFO Counter:70 [PersonPrepareForSim] handled person # 8
2018-06-27 09:43:45,094  INFO Counter:76 [PersonPrepareForSim] handled person # 10
2018-06-27 09:43:45,108  INFO Counter:70  vehicles # 1
2018-06-27 09:43:45,109  INFO Counter:70  vehicles # 2
2018-06-27 09:43:45,110  INFO Counter:70  vehicles # 4
2018-06-27 09:43:45,111  INFO Counter:70  vehicles # 8
2018-06-27 09:43:45,112  INFO AbstractController:121 ###################################################
2018-06-27 09:43:45,112  INFO AbstractController:122 ### ITERATION 0 BEGINS
2018-06-27 09:43:45,126  INFO ControlerListenerManagerImpl:145 calling notifyIterationStarts on org.matsim.analysis.LegHistogramListener
2018-06-27 09:43:45,126  INFO ControlerListenerManagerImpl:145 calling notifyIterationStarts on org.matsim.analysis.LinkStatsControlerListener
2018-06-27 09:43:45,127  INFO ControlerListenerManagerImpl:145 calling notifyIterationStarts on org.matsim.contrib.carsharing.manager.CarsharingManagerNew
2018-06-27 09:43:47,245  INFO MatsimXmlParser:155 starting to parse xml from url file:/P:/Eclipse-MATSim/matsim/contribs/carsharing/test/input/org/matsim/contrib/carsharing/runExample/RunCarsharingIT/freefloating_areas.xml ...
2018-06-27 09:43:47,263  INFO MatsimXmlParser:270 Trying to load file:/P:/Eclipse-MATSim/matsim/contribs/carsharing/test/input/org/matsim/contrib/carsharing/runExample/RunCarsharingIT/src/main/resources/dtd/freefloating_areas_v1.dtd. In some cases (e.g. network interface up but no connection), this may take a bit.
2018-06-27 09:43:47,266  INFO MatsimXmlParser:285 java.io.FileNotFoundException: P:\Eclipse-MATSim\matsim\contribs\carsharing\test\input\org\matsim\contrib\carsharing\runExample\RunCarsharingIT\src\main\resources\dtd\freefloating_areas_v1.dtd (The system cannot find the file specified). May not be fatal, will try to load it locally.
2018-06-27 09:43:47,277  INFO MatsimXmlParser:307 Using local DTD from classpath:dtd/freefloating_areas_v1.dtd
2018-06-27 09:43:47,278  INFO Counter:70 reading freefloating area # 1
2018-06-27 09:43:47,478  INFO Counter:76 reading freefloating area # 1
2018-06-27 09:43:47,480  INFO MatsimXmlParser:147 starting to parse xml from file test/input/org/matsim/contrib/carsharing/runExample/RunCarsharingIT//CarsharingStations.xml ...
2018-06-27 09:43:47,486  INFO MatsimXmlParser:270 Trying to load file:///P:/Eclipse-MATSim/matsim/contribs/carsharing/src/main/resources/dtd/CarsharingStations.dtd. In some cases (e.g. network interface up but no connection), this may take a bit.
2018-06-27 09:43:47,511  INFO ControlerListenerManagerImpl:145 calling notifyIterationStarts on org.matsim.core.replanning.ReplanningContextImpl
2018-06-27 09:43:47,512  INFO ControlerListenerManagerImpl:145 calling notifyIterationStarts on org.matsim.core.scoring.ExperiencedPlansServiceImpl$1
2018-06-27 09:43:47,513  INFO ControlerListenerManagerImpl:145 calling notifyIterationStarts on org.matsim.core.scoring.ScoringFunctionsForPopulation$1
2018-06-27 09:43:47,766  INFO ControlerListenerManagerImpl:148 [it.0] all ControlerIterationStartsListeners called.
2018-06-27 09:43:47,781  INFO ControlerListenerManagerImpl:224 calling notifyBeforeMobsim on org.matsim.core.controler.corelisteners.EventsHandlingImpl
2018-06-27 09:43:47,782  INFO EventsManagerImpl:170 resetting Event-Handlers
2018-06-27 09:43:47,783  INFO EventsManagerImpl:177   org.matsim.analysis.LegHistogram
2018-06-27 09:43:47,784  INFO EventsManagerImpl:177   org.matsim.core.scoring.EventsToLegs
2018-06-27 09:43:47,785  INFO EventsManagerImpl:177   org.matsim.analysis.LegHistogram
2018-06-27 09:43:47,785  INFO EventsManagerImpl:177   org.matsim.analysis.CalcLegTimes
2018-06-27 09:43:47,786  INFO EventsManagerImpl:177   org.matsim.contrib.carsharing.events.handlers.PersonArrivalDepartureHandler
2018-06-27 09:43:47,787  INFO EventsManagerImpl:177   org.matsim.core.trafficmonitoring.TravelTimeCalculator
2018-06-27 09:43:47,788  INFO EventsManagerImpl:177   org.matsim.analysis.VolumesAnalyzer
2018-06-27 09:43:47,789  INFO EventsManagerImpl:177   org.matsim.contrib.carsharing.manager.demand.DemandHandler
2018-06-27 09:43:47,789  INFO EventsManagerImpl:177   org.matsim.core.events.algorithms.Vehicle2DriverEventHandler
2018-06-27 09:43:47,790  INFO EventsManagerImpl:177   org.matsim.core.scoring.EventsToActivities
2018-06-27 09:43:47,791  INFO EventsManagerImpl:177   org.matsim.core.scoring.ScoringFunctionsForPopulation
2018-06-27 09:43:47,830  INFO EventsManagerImpl:144 adding Event-Handler: org.matsim.core.events.algorithms.EventWriterXML
2018-06-27 09:43:47,831  INFO EventsManagerImpl:148   org.matsim.core.events.algorithms.EventWriter
2018-06-27 09:43:47,832  INFO EventsManagerImpl:148   org.matsim.core.events.handler.BasicEventHandler
2018-06-27 09:43:47,833  INFO EventsManagerImpl:207     > org.matsim.api.core.v01.events.Event
2018-06-27 09:43:47,834  INFO EventsManagerImpl:156 
2018-06-27 09:43:47,835  INFO EventsManagerImpl:144 adding Event-Handler: org.matsim.core.events.algorithms.EventWriterXML
2018-06-27 09:43:47,835  INFO EventsManagerImpl:148   org.matsim.core.events.algorithms.EventWriter
2018-06-27 09:43:47,836  INFO EventsManagerImpl:148   org.matsim.core.events.handler.BasicEventHandler
2018-06-27 09:43:47,837  INFO EventsManagerImpl:207     > org.matsim.api.core.v01.events.Event
2018-06-27 09:43:47,838  INFO EventsManagerImpl:156 
2018-06-27 09:43:47,839  INFO ControlerListenerManagerImpl:224 calling notifyBeforeMobsim on org.matsim.core.controler.corelisteners.PlansDumpingImpl
2018-06-27 09:43:47,840  INFO PlansDumpingImpl:76 dumping plans...
2018-06-27 09:43:47,910  INFO Counter:70 [PopulationWriter] dumped person # 1
2018-06-27 09:43:47,912  INFO Counter:70 [PopulationWriter] dumped person # 2
2018-06-27 09:43:47,915  INFO Counter:70 [PopulationWriter] dumped person # 4
2018-06-27 09:43:47,917  INFO Counter:70 [PopulationWriter] dumped person # 8
2018-06-27 09:43:47,925  INFO PopulationWriter:139 Population written to: test/output/org/matsim/contrib/carsharing/runExample/RunCarsharingIT/test/ITERS/it.0/run1.0.plans.xml.gz
2018-06-27 09:43:47,936  INFO Counter:76 [PopulationWriter] dumped person # 10
2018-06-27 09:43:47,938  INFO PlansDumpingImpl:93 finished plans dump.
2018-06-27 09:43:47,938  INFO ControlerListenerManagerImpl:229 calling notifyBeforeMobsim on org.matsim.core.population.VspPlansCleaner
2018-06-27 09:43:47,940  INFO ControlerListenerManagerImpl:232 [it.0] all ControlerBeforeMobsimListeners called.
2018-06-27 09:43:49,036  INFO QNetsimEngine:507 Assigned 11 nodes and 20 links to QSimEngineRunner #0
2018-06-27 09:43:49,099  INFO EventsManagerImpl:134  event # 1
2018-06-27 09:43:49,123  INFO QNetsimEngine:347 SIMULATION (QNetsimEngine) AT 08:00:00 : #links=0 #nodes=0
2018-06-27 09:43:49,124  INFO QSim:506 SIMULATION (NEW QSim) AT 08:00:00 : #Veh=10 lost=0 simT=0.0s realT=1s; (s/r): 0.0
2018-06-27 09:43:49,124  INFO Gbl:54 used RAM: 33033656B = 32259kB = 31MB  free: 996143688B = 949MB  total: 1029177344B = 981MB
2018-06-27 09:43:49,168  INFO EventsManagerImpl:134  event # 4
2018-06-27 09:43:49,208  INFO EventsManagerImpl:134  event # 16
2018-06-27 09:43:49,248  INFO EventsManagerImpl:134  event # 64
2018-06-27 09:43:49,434  INFO EventsManagerImpl:134  event # 256
2018-06-27 09:43:49,443  INFO QNetsimEngine:347 SIMULATION (QNetsimEngine) AT 09:00:00 : #links=0 #nodes=0
2018-06-27 09:43:49,444  INFO QSim:506 SIMULATION (NEW QSim) AT 09:00:00 : #Veh=10 lost=0 simT=3600.0s realT=1s; (s/r): 3600.0
2018-06-27 09:43:49,445  INFO Gbl:54 used RAM: 33033656B = 32259kB = 31MB  free: 996143688B = 949MB  total: 1029177344B = 981MB
2018-06-27 09:43:49,606  INFO QNetsimEngine:347 SIMULATION (QNetsimEngine) AT 10:00:00 : #links=0 #nodes=0
2018-06-27 09:43:49,607  INFO QSim:506 SIMULATION (NEW QSim) AT 10:00:00 : #Veh=10 lost=0 simT=7200.0s realT=1s; (s/r): 7200.0
2018-06-27 09:43:49,608  INFO Gbl:54 used RAM: 37922712B = 37033kB = 36MB  free: 991254632B = 945MB  total: 1029177344B = 981MB
2018-06-27 09:43:49,771  INFO QNetsimEngine:347 SIMULATION (QNetsimEngine) AT 11:00:00 : #links=0 #nodes=0
2018-06-27 09:43:49,773  INFO QSim:506 SIMULATION (NEW QSim) AT 11:00:00 : #Veh=10 lost=0 simT=10800.0s realT=1s; (s/r): 10800.0
2018-06-27 09:43:49,774  INFO Gbl:54 used RAM: 37922712B = 37033kB = 36MB  free: 991254632B = 945MB  total: 1029177344B = 981MB
2018-06-27 09:43:49,912  INFO QNetsimEngine:347 SIMULATION (QNetsimEngine) AT 12:00:00 : #links=0 #nodes=0
2018-06-27 09:43:49,913  INFO QSim:506 SIMULATION (NEW QSim) AT 12:00:00 : #Veh=10 lost=0 simT=14400.0s realT=1s; (s/r): 14400.0
2018-06-27 09:43:49,914  INFO Gbl:54 used RAM: 39712312B = 38781kB = 37MB  free: 989465032B = 943MB  total: 1029177344B = 981MB
2018-06-27 09:43:50,051  INFO QNetsimEngine:347 SIMULATION (QNetsimEngine) AT 13:00:00 : #links=0 #nodes=0
2018-06-27 09:43:50,053  INFO QSim:506 SIMULATION (NEW QSim) AT 13:00:00 : #Veh=10 lost=0 simT=18000.0s realT=1s; (s/r): 18000.0
2018-06-27 09:43:50,054  INFO Gbl:54 used RAM: 44601368B = 43556kB = 42MB  free: 984575976B = 938MB  total: 1029177344B = 981MB
2018-06-27 09:43:50,192  INFO QNetsimEngine:347 SIMULATION (QNetsimEngine) AT 14:00:00 : #links=0 #nodes=0
2018-06-27 09:43:50,193  INFO QSim:506 SIMULATION (NEW QSim) AT 14:00:00 : #Veh=10 lost=0 simT=21600.0s realT=2s; (s/r): 10800.0
2018-06-27 09:43:50,194  INFO Gbl:54 used RAM: 44601368B = 43556kB = 42MB  free: 984575976B = 938MB  total: 1029177344B = 981MB
2018-06-27 09:43:50,332  INFO QNetsimEngine:347 SIMULATION (QNetsimEngine) AT 15:00:00 : #links=0 #nodes=0
2018-06-27 09:43:50,333  INFO QSim:506 SIMULATION (NEW QSim) AT 15:00:00 : #Veh=10 lost=0 simT=25200.0s realT=2s; (s/r): 12600.0
2018-06-27 09:43:50,334  INFO Gbl:54 used RAM: 44601368B = 43556kB = 42MB  free: 984575976B = 938MB  total: 1029177344B = 981MB
2018-06-27 09:43:50,470  INFO QNetsimEngine:347 SIMULATION (QNetsimEngine) AT 16:00:00 : #links=0 #nodes=0
2018-06-27 09:43:50,472  INFO QSim:506 SIMULATION (NEW QSim) AT 16:00:00 : #Veh=10 lost=0 simT=28800.0s realT=2s; (s/r): 14400.0
2018-06-27 09:43:50,473  INFO Gbl:54 used RAM: 46390968B = 45303kB = 44MB  free: 982786376B = 937MB  total: 1029177344B = 981MB
2018-06-27 09:43:50,523 ERROR BasicPlanAgentImpl:165 last activity of person driver agent id 1 has end time < infty; setting it to infty
2018-06-27 09:43:50,525 ERROR BasicPlanAgentImpl:166  This message given only once.
2018-06-27 09:43:50,621  INFO QNetsimEngine:347 SIMULATION (QNetsimEngine) AT 17:00:00 : #links=1 #nodes=0
2018-06-27 09:43:50,623  INFO QSim:506 SIMULATION (NEW QSim) AT 17:00:00 : #Veh=3 lost=0 simT=32400.0s realT=2s; (s/r): 16200.0
2018-06-27 09:43:50,623  INFO Gbl:54 used RAM: 51280136B = 50078kB = 48MB  free: 977897208B = 932MB  total: 1029177344B = 981MB
2018-06-27 09:43:50,759  INFO QNetsimEngine:347 SIMULATION (QNetsimEngine) AT 18:00:00 : #links=0 #nodes=0
2018-06-27 09:43:50,760  INFO QSim:506 SIMULATION (NEW QSim) AT 18:00:00 : #Veh=1 lost=0 simT=36000.0s realT=2s; (s/r): 18000.0
2018-06-27 09:43:50,761  INFO Gbl:54 used RAM: 51280136B = 50078kB = 48MB  free: 977897208B = 932MB  total: 1029177344B = 981MB
2018-06-27 09:43:50,895  INFO QNetsimEngine:347 SIMULATION (QNetsimEngine) AT 19:00:00 : #links=0 #nodes=0
2018-06-27 09:43:50,897  INFO QSim:506 SIMULATION (NEW QSim) AT 19:00:00 : #Veh=1 lost=0 simT=39600.0s realT=2s; (s/r): 19800.0
2018-06-27 09:43:50,897  INFO Gbl:54 used RAM: 51280136B = 50078kB = 48MB  free: 977897208B = 932MB  total: 1029177344B = 981MB
2018-06-27 09:43:51,034  INFO QNetsimEngine:347 SIMULATION (QNetsimEngine) AT 20:00:00 : #links=0 #nodes=0
2018-06-27 09:43:51,036  INFO QSim:506 SIMULATION (NEW QSim) AT 20:00:00 : #Veh=1 lost=0 simT=43200.0s realT=2s; (s/r): 21600.0
2018-06-27 09:43:51,036  INFO Gbl:54 used RAM: 57958792B = 56600kB = 55MB  free: 971218552B = 926MB  total: 1029177344B = 981MB
2018-06-27 09:43:51,172  INFO QNetsimEngine:347 SIMULATION (QNetsimEngine) AT 21:00:00 : #links=0 #nodes=0
2018-06-27 09:43:51,174  INFO QSim:506 SIMULATION (NEW QSim) AT 21:00:00 : #Veh=1 lost=0 simT=46800.0s realT=3s; (s/r): 15600.0
2018-06-27 09:43:51,175  INFO Gbl:54 used RAM: 57958792B = 56600kB = 55MB  free: 971218552B = 926MB  total: 1029177344B = 981MB
2018-06-27 09:43:51,311  INFO QNetsimEngine:347 SIMULATION (QNetsimEngine) AT 22:00:00 : #links=0 #nodes=0
2018-06-27 09:43:51,312  INFO QSim:506 SIMULATION (NEW QSim) AT 22:00:00 : #Veh=1 lost=0 simT=50400.0s realT=3s; (s/r): 16800.0
2018-06-27 09:43:51,313  INFO Gbl:54 used RAM: 57958792B = 56600kB = 55MB  free: 971218552B = 926MB  total: 1029177344B = 981MB
2018-06-27 09:43:51,451  INFO QNetsimEngine:347 SIMULATION (QNetsimEngine) AT 23:00:00 : #links=0 #nodes=0
2018-06-27 09:43:51,452  INFO QSim:506 SIMULATION (NEW QSim) AT 23:00:00 : #Veh=1 lost=0 simT=54000.0s realT=3s; (s/r): 18000.0
2018-06-27 09:43:51,453  INFO Gbl:54 used RAM: 62847840B = 61374kB = 59MB  free: 966329504B = 921MB  total: 1029177344B = 981MB
2018-06-27 09:43:51,587  INFO QNetsimEngine:347 SIMULATION (QNetsimEngine) AT 24:00:00 : #links=0 #nodes=0
2018-06-27 09:43:51,588  INFO QSim:506 SIMULATION (NEW QSim) AT 24:00:00 : #Veh=1 lost=0 simT=57600.0s realT=3s; (s/r): 19200.0
2018-06-27 09:43:51,589  INFO Gbl:54 used RAM: 64637440B = 63122kB = 61MB  free: 964539904B = 919MB  total: 1029177344B = 981MB
2018-06-27 09:43:51,725  INFO QNetsimEngine:347 SIMULATION (QNetsimEngine) AT 25:00:00 : #links=0 #nodes=0
2018-06-27 09:43:51,726  INFO QSim:506 SIMULATION (NEW QSim) AT 25:00:00 : #Veh=1 lost=0 simT=61200.0s realT=3s; (s/r): 20400.0
2018-06-27 09:43:51,727  INFO Gbl:54 used RAM: 64637440B = 63122kB = 61MB  free: 964539904B = 919MB  total: 1029177344B = 981MB
2018-06-27 09:43:51,858  INFO QNetsimEngine:347 SIMULATION (QNetsimEngine) AT 26:00:00 : #links=0 #nodes=0
2018-06-27 09:43:51,859  INFO QSim:506 SIMULATION (NEW QSim) AT 26:00:00 : #Veh=1 lost=0 simT=64800.0s realT=3s; (s/r): 21600.0
2018-06-27 09:43:51,860  INFO Gbl:54 used RAM: 64637440B = 63122kB = 61MB  free: 964539904B = 919MB  total: 1029177344B = 981MB
2018-06-27 09:43:51,988  INFO QNetsimEngine:347 SIMULATION (QNetsimEngine) AT 27:00:00 : #links=0 #nodes=0
2018-06-27 09:43:51,989  INFO QSim:506 SIMULATION (NEW QSim) AT 27:00:00 : #Veh=1 lost=0 simT=68400.0s realT=3s; (s/r): 22800.0
2018-06-27 09:43:51,990  INFO Gbl:54 used RAM: 69526496B = 67896kB = 66MB  free: 959650848B = 915MB  total: 1029177344B = 981MB
2018-06-27 09:43:52,120  INFO QNetsimEngine:347 SIMULATION (QNetsimEngine) AT 28:00:00 : #links=0 #nodes=0
2018-06-27 09:43:52,122  INFO QSim:506 SIMULATION (NEW QSim) AT 28:00:00 : #Veh=1 lost=0 simT=72000.0s realT=4s; (s/r): 18000.0
2018-06-27 09:43:52,122  INFO Gbl:54 used RAM: 71316096B = 69644kB = 68MB  free: 957861248B = 913MB  total: 1029177344B = 981MB
2018-06-27 09:43:52,250  INFO QNetsimEngine:347 SIMULATION (QNetsimEngine) AT 29:00:00 : #links=0 #nodes=0
2018-06-27 09:43:52,251  INFO QSim:506 SIMULATION (NEW QSim) AT 29:00:00 : #Veh=1 lost=0 simT=75600.0s realT=4s; (s/r): 18900.0
2018-06-27 09:43:52,252  INFO Gbl:54 used RAM: 76684832B = 74887kB = 73MB  free: 952492512B = 908MB  total: 1029177344B = 981MB
2018-06-27 09:43:52,382  INFO QNetsimEngine:347 SIMULATION (QNetsimEngine) AT 30:00:00 : #links=0 #nodes=0
2018-06-27 09:43:52,384  INFO QSim:506 SIMULATION (NEW QSim) AT 30:00:00 : #Veh=1 lost=0 simT=79200.0s realT=4s; (s/r): 19800.0
2018-06-27 09:43:52,385  INFO Gbl:54 used RAM: 81573880B = 79661kB = 77MB  free: 947603464B = 903MB  total: 1029177344B = 981MB
2018-06-27 09:43:52,513  INFO QNetsimEngine:347 SIMULATION (QNetsimEngine) AT 31:00:00 : #links=0 #nodes=0
2018-06-27 09:43:52,515  INFO QSim:506 SIMULATION (NEW QSim) AT 31:00:00 : #Veh=1 lost=0 simT=82800.0s realT=4s; (s/r): 20700.0
2018-06-27 09:43:52,516  INFO Gbl:54 used RAM: 81573880B = 79661kB = 77MB  free: 947603464B = 903MB  total: 1029177344B = 981MB
2018-06-27 09:43:52,645  INFO QNetsimEngine:347 SIMULATION (QNetsimEngine) AT 32:00:00 : #links=0 #nodes=0
2018-06-27 09:43:52,646  INFO QSim:506 SIMULATION (NEW QSim) AT 32:00:00 : #Veh=1 lost=0 simT=86400.0s realT=4s; (s/r): 21600.0
2018-06-27 09:43:52,647  INFO Gbl:54 used RAM: 83363480B = 81409kB = 79MB  free: 945813864B = 901MB  total: 1029177344B = 981MB
2018-06-27 09:43:52,740  INFO Gbl:187 Thread performance: Thread=class org.matsim.core.events.SimStepParallelEventsManagerImpl$ProcessEventsRunnable0  cpu-time=0.624004sec
2018-06-27 09:43:52,748  INFO AbstractController$6:210 ### ITERATION 0 fires after mobsim event
2018-06-27 09:43:52,749  INFO ControlerListenerManagerImpl:248 calling notifyAfterMobsim on org.matsim.analysis.LegTimesControlerListener
[...]
2018-06-27 09:44:09,402  INFO Gbl:54 used RAM: 133233368B = 130110kB = 127MB  free: 455542056B = 434MB  total: 588775424B = 561MB
2018-06-27 09:44:09,544  INFO QNetsimEngine:347 SIMULATION (QNetsimEngine) AT 20:00:00 : #links=0 #nodes=0
2018-06-27 09:44:09,545  INFO QSim:506 SIMULATION (NEW QSim) AT 20:00:00 : #Veh=1 lost=6 simT=43200.0s realT=1s; (s/r): 43200.0
2018-06-27 09:44:09,546  INFO Gbl:54 used RAM: 138816336B = 135562kB = 132MB  free: 449959088B = 429MB  total: 588775424B = 561MB
2018-06-27 09:44:09,686  INFO QNetsimEngine:347 SIMULATION (QNetsimEngine) AT 21:00:00 : #links=0 #nodes=0
2018-06-27 09:44:09,687  INFO QSim:506 SIMULATION (NEW QSim) AT 21:00:00 : #Veh=1 lost=6 simT=46800.0s realT=1s; (s/r): 46800.0
2018-06-27 09:44:09,688  INFO Gbl:54 used RAM: 138816336B = 135562kB = 132MB  free: 449959088B = 429MB  total: 588775424B = 561MB
2018-06-27 09:44:09,829  INFO QNetsimEngine:347 SIMULATION (QNetsimEngine) AT 22:00:00 : #links=0 #nodes=0
2018-06-27 09:44:09,830  INFO QSim:506 SIMULATION (NEW QSim) AT 22:00:00 : #Veh=1 lost=6 simT=50400.0s realT=2s; (s/r): 25200.0
2018-06-27 09:44:09,831  INFO Gbl:54 used RAM: 138816336B = 135562kB = 132MB  free: 449959088B = 429MB  total: 588775424B = 561MB
2018-06-27 09:44:09,974  INFO QNetsimEngine:347 SIMULATION (QNetsimEngine) AT 23:00:00 : #links=0 #nodes=0
2018-06-27 09:44:09,975  INFO QSim:506 SIMULATION (NEW QSim) AT 23:00:00 : #Veh=1 lost=6 simT=54000.0s realT=2s; (s/r): 27000.0
2018-06-27 09:44:09,976  INFO Gbl:54 used RAM: 144399304B = 141014kB = 137MB  free: 444376120B = 423MB  total: 588775424B = 561MB
2018-06-27 09:44:10,117  INFO QNetsimEngine:347 SIMULATION (QNetsimEngine) AT 24:00:00 : #links=0 #nodes=0
2018-06-27 09:44:10,118  INFO QSim:506 SIMULATION (NEW QSim) AT 24:00:00 : #Veh=1 lost=6 simT=57600.0s realT=2s; (s/r): 28800.0
2018-06-27 09:44:10,119  INFO Gbl:54 used RAM: 144399304B = 141014kB = 137MB  free: 444376120B = 423MB  total: 588775424B = 561MB
2018-06-27 09:44:10,260  INFO QNetsimEngine:347 SIMULATION (QNetsimEngine) AT 25:00:00 : #links=0 #nodes=0
2018-06-27 09:44:10,261  INFO QSim:506 SIMULATION (NEW QSim) AT 25:00:00 : #Veh=1 lost=6 simT=61200.0s realT=2s; (s/r): 30600.0
2018-06-27 09:44:10,262  INFO Gbl:54 used RAM: 145741496B = 142325kB = 138MB  free: 443033928B = 422MB  total: 588775424B = 561MB
2018-06-27 09:44:10,405  INFO QNetsimEngine:347 SIMULATION (QNetsimEngine) AT 26:00:00 : #links=0 #nodes=0
2018-06-27 09:44:10,406  INFO QSim:506 SIMULATION (NEW QSim) AT 26:00:00 : #Veh=1 lost=6 simT=64800.0s realT=2s; (s/r): 32400.0
2018-06-27 09:44:10,407  INFO Gbl:54 used RAM: 151324456B = 147777kB = 144MB  free: 437450968B = 417MB  total: 588775424B = 561MB
2018-06-27 09:44:10,547  INFO QNetsimEngine:347 SIMULATION (QNetsimEngine) AT 27:00:00 : #links=0 #nodes=0
2018-06-27 09:44:10,548  INFO QSim:506 SIMULATION (NEW QSim) AT 27:00:00 : #Veh=1 lost=6 simT=68400.0s realT=2s; (s/r): 34200.0
2018-06-27 09:44:10,549  INFO Gbl:54 used RAM: 151324456B = 147777kB = 144MB  free: 437450968B = 417MB  total: 588775424B = 561MB
2018-06-27 09:44:10,691  INFO QNetsimEngine:347 SIMULATION (QNetsimEngine) AT 28:00:00 : #links=0 #nodes=0
2018-06-27 09:44:10,693  INFO QSim:506 SIMULATION (NEW QSim) AT 28:00:00 : #Veh=1 lost=6 simT=72000.0s realT=2s; (s/r): 36000.0
2018-06-27 09:44:10,694  INFO Gbl:54 used RAM: 155565232B = 151919kB = 148MB  free: 433210192B = 413MB  total: 588775424B = 561MB
2018-06-27 09:44:10,837  INFO QNetsimEngine:347 SIMULATION (QNetsimEngine) AT 29:00:00 : #links=0 #nodes=0
2018-06-27 09:44:10,838  INFO QSim:506 SIMULATION (NEW QSim) AT 29:00:00 : #Veh=1 lost=6 simT=75600.0s realT=3s; (s/r): 25200.0
2018-06-27 09:44:10,839  INFO Gbl:54 used RAM: 156907440B = 153229kB = 149MB  free: 431867984B = 411MB  total: 588775424B = 561MB
2018-06-27 09:44:10,982  INFO QNetsimEngine:347 SIMULATION (QNetsimEngine) AT 30:00:00 : #links=0 #nodes=0
2018-06-27 09:44:10,983  INFO QSim:506 SIMULATION (NEW QSim) AT 30:00:00 : #Veh=1 lost=6 simT=79200.0s realT=3s; (s/r): 26400.0
2018-06-27 09:44:10,984  INFO Gbl:54 used RAM: 156907440B = 153229kB = 149MB  free: 431867984B = 411MB  total: 588775424B = 561MB
2018-06-27 09:44:11,129  INFO QNetsimEngine:347 SIMULATION (QNetsimEngine) AT 31:00:00 : #links=0 #nodes=0
2018-06-27 09:44:11,130  INFO QSim:506 SIMULATION (NEW QSim) AT 31:00:00 : #Veh=1 lost=6 simT=82800.0s realT=3s; (s/r): 27600.0
2018-06-27 09:44:11,131  INFO Gbl:54 used RAM: 162490408B = 158682kB = 154MB  free: 426285016B = 406MB  total: 588775424B = 561MB
2018-06-27 09:44:11,273  INFO QNetsimEngine:347 SIMULATION (QNetsimEngine) AT 32:00:00 : #links=0 #nodes=0
2018-06-27 09:44:11,274  INFO QSim:506 SIMULATION (NEW QSim) AT 32:00:00 : #Veh=1 lost=6 simT=86400.0s realT=3s; (s/r): 28800.0
2018-06-27 09:44:11,275  INFO Gbl:54 used RAM: 163832616B = 159992kB = 156MB  free: 424942808B = 405MB  total: 588775424B = 561MB
2018-06-27 09:44:11,363  INFO AbstractController$6:210 ### ITERATION 3 fires after mobsim event
2018-06-27 09:44:11,363  INFO Gbl:187 Thread performance: Thread=class org.matsim.core.events.SimStepParallelEventsManagerImpl$ProcessEventsRunnable0  cpu-time=0.624004sec
2018-06-27 09:44:11,364  INFO ControlerListenerManagerImpl:248 calling notifyAfterMobsim on org.matsim.analysis.LegTimesControlerListener
2018-06-27 09:44:11,374  INFO LegTimesControlerListener:50 [3] average trip (probably: leg) duration is: 381 seconds = 00:06:21
2018-06-27 09:44:11,375  INFO ControlerListenerManagerImpl:248 calling notifyAfterMobsim on org.matsim.contrib.carsharing.runExample.RunCarsharingIT$MyAnalysis
2018-06-27 09:44:11,376  INFO RunCarsharingIT$MyAnalysis:128 number of legs:	18	100%
2018-06-27 09:44:11,376  INFO ControlerListenerManagerImpl:248 calling notifyAfterMobsim on org.matsim.core.scoring.EventsToActivities$1
2018-06-27 09:44:11,377  WARN CharyparNagelActivityScoring:235 There are opening or closing times defined for the first and last activity. The correctness of the scoring function can thus not be guaranteed.
2018-06-27 09:44:11,378  WARN CharyparNagelActivityScoring:236 first activity: [type=h][coord=null][linkId=0][startTime=undefined][endTime=08:00:00][duration=undefined][facilityId=0]
2018-06-27 09:44:11,380  WARN CharyparNagelActivityScoring:237 last activity: [type=h][coord=null][linkId=0][startTime=32:36:37][endTime=undefined][duration=undefined][facilityId=0]
2018-06-27 09:44:11,381  WARN CharyparNagelActivityScoring:235 There are opening or closing times defined for the first and last activity. The correctness of the scoring function can thus not be guaranteed.
2018-06-27 09:44:11,382  WARN CharyparNagelActivityScoring:236 first activity: [type=h][coord=null][linkId=12][startTime=undefined][endTime=08:00:03][duration=undefined][facilityId=1]
2018-06-27 09:44:11,383  WARN CharyparNagelActivityScoring:237 last activity: [type=h][coord=null][linkId=12][startTime=16:06:54][endTime=undefined][duration=undefined][facilityId=1]
2018-06-27 09:44:11,385  WARN CharyparNagelActivityScoring:235 There are opening or closing times defined for the first and last activity. The correctness of the scoring function can thus not be guaranteed.
2018-06-27 09:44:11,386  WARN CharyparNagelActivityScoring:236 first activity: [type=h][coord=null][linkId=12][startTime=undefined][endTime=08:06:00][duration=undefined][facilityId=1]
2018-06-27 09:44:11,387  WARN CharyparNagelActivityScoring:237 last activity: [type=h][coord=null][linkId=12][startTime=16:41:49][endTime=undefined][duration=undefined][facilityId=1]
2018-06-27 09:44:11,388  WARN CharyparNagelActivityScoring:235 There are opening or closing times defined for the first and last activity. The correctness of the scoring function can thus not be guaranteed.
2018-06-27 09:44:11,390  WARN CharyparNagelActivityScoring:236 first activity: [type=h][coord=null][linkId=12][startTime=undefined][endTime=08:00:36][duration=undefined][facilityId=1]
2018-06-27 09:44:11,391  WARN CharyparNagelActivityScoring:237 last activity: [type=h][coord=null][linkId=12][startTime=16:35:49][endTime=undefined][duration=undefined][facilityId=1]
2018-06-27 09:44:11,392  INFO ControlerListenerManagerImpl:251 [it.3] all ControlerAfterMobsimListeners called.
2018-06-27 09:44:11,393  INFO AbstractController$4:147 ### ITERATION 3 fires scoring event
2018-06-27 09:44:11,394  INFO ControlerListenerManagerImpl:183 calling notifyScoring on org.matsim.core.scoring.PlansScoringImpl
2018-06-27 09:44:11,394  INFO NewScoreAssignerImpl:36 it: 3 msaStart: null
2018-06-27 09:44:11,395  INFO ControlerListenerManagerImpl:194 [it.3] all ControlerScoringListeners called.
2018-06-27 09:44:11,396  INFO AbstractController$5:155 ### ITERATION 3 fires iteration end event
2018-06-27 09:44:11,396  INFO ControlerListenerManagerImpl:160 calling notifyIterationEnds on org.matsim.core.controler.corelisteners.EventsHandlingImpl
2018-06-27 09:44:11,401  INFO EventsManagerImpl:161 removing Event-Handler: org.matsim.core.events.algorithms.EventWriterXML
2018-06-27 09:44:11,402  INFO EventsManagerImpl:161 removing Event-Handler: org.matsim.core.events.algorithms.EventWriterXML
2018-06-27 09:44:11,402  INFO ControlerListenerManagerImpl:160 calling notifyIterationEnds on org.matsim.core.scoring.PlansScoringImpl
2018-06-27 09:44:11,403  INFO PopulationImpl:112  person # 1
2018-06-27 09:44:11,404  INFO PopulationImpl:112  person # 4
2018-06-27 09:44:11,410  INFO Counter:70 [PopulationWriter] dumped person # 1
2018-06-27 09:44:11,411  INFO Counter:70 [PopulationWriter] dumped person # 2
2018-06-27 09:44:11,412  INFO Counter:70 [PopulationWriter] dumped person # 4
2018-06-27 09:44:11,413  INFO Counter:70 [PopulationWriter] dumped person # 8
2018-06-27 09:44:11,414  INFO PopulationWriter:139 Population written to: test/output/org/matsim/contrib/carsharing/runExample/RunCarsharingIT/test/ITERS/it.3/run1.3.experienced_plans.xml.gz
2018-06-27 09:44:11,417  INFO Counter:76 [PopulationWriter] dumped person # 10
2018-06-27 09:44:11,424  INFO ControlerListenerManagerImpl:167 calling notifyIterationEnds on org.matsim.counts.CountsControlerListener
2018-06-27 09:44:11,424  INFO ControlerListenerManagerImpl:167 calling notifyIterationEnds on org.matsim.analysis.ModeStatsControlerListener
2018-06-27 09:44:11,425  INFO ModeStatsControlerListener:155 -- mode share of mode access_walk_ff = 0.0
2018-06-27 09:44:11,426  INFO ModeStatsControlerListener:155 -- mode share of mode access_walk_ow = 0.0
2018-06-27 09:44:11,426  INFO ModeStatsControlerListener:155 -- mode share of mode access_walk_tw = 0.0
2018-06-27 09:44:11,427  INFO ModeStatsControlerListener:155 -- mode share of mode bike = 0.0
2018-06-27 09:44:11,428  INFO ModeStatsControlerListener:155 -- mode share of mode car = 0.0
2018-06-27 09:44:11,428  INFO ModeStatsControlerListener:155 -- mode share of mode egress_walk_ff = 0.0
2018-06-27 09:44:11,429  INFO ModeStatsControlerListener:155 -- mode share of mode egress_walk_ow = 0.0
2018-06-27 09:44:11,430  INFO ModeStatsControlerListener:155 -- mode share of mode egress_walk_tw = 0.0
2018-06-27 09:44:11,430  INFO ModeStatsControlerListener:155 -- mode share of mode freefloating_vehicle = 0.0
2018-06-27 09:44:11,431  INFO ModeStatsControlerListener:155 -- mode share of mode oneway_vehicle = 0.0
2018-06-27 09:44:11,432  INFO ModeStatsControlerListener:155 -- mode share of mode other = 0.0
2018-06-27 09:44:11,432  INFO ModeStatsControlerListener:155 -- mode share of mode pt = 0.0
2018-06-27 09:44:11,433  INFO ModeStatsControlerListener:155 -- mode share of mode ride = 0.0
2018-06-27 09:44:11,434  INFO ModeStatsControlerListener:155 -- mode share of mode twoway_vehicle = 0.0
2018-06-27 09:44:11,434  INFO ModeStatsControlerListener:155 -- mode share of mode walk = 0.0
2018-06-27 09:44:11,589  INFO ControlerListenerManagerImpl:167 calling notifyIterationEnds on org.matsim.analysis.ScoreStatsControlerListener
2018-06-27 09:44:11,590  INFO ScoreStatsControlerListener:191 -- avg. score of the executed plan of each agent: -614.1560846018047
2018-06-27 09:44:11,591  INFO ScoreStatsControlerListener:192 -- avg. score of the worst plan of each agent: -617.5074977216544
2018-06-27 09:44:11,592  INFO ScoreStatsControlerListener:193 -- avg. of the avg. plan score per agent: -265.14060965862814
2018-06-27 09:44:11,592  INFO ScoreStatsControlerListener:194 -- avg. score of the best plan of each agent: 78.04574952027319
2018-06-27 09:44:11,730  INFO ControlerListenerManagerImpl:167 calling notifyIterationEnds on org.matsim.analysis.TravelDistanceStatsControlerListener
2018-06-27 09:44:11,732  INFO TravelDistanceStats:128 [TravelDistanceStats] using 4 thread(s).
2018-06-27 09:44:11,733  INFO TravelDistanceStats:141 [TravelDistanceStats] all threads finished.
2018-06-27 09:44:11,734  INFO TravelDistanceStats:161 -- average of the average leg distance per plan (executed plans only): 525.3072148875846
2018-06-27 09:44:11,734  INFO TravelDistanceStats:162 (TravelDistanceStats takes an average over all legs where the simulation reports travelled distances. These are car legs, pt legs,
2018-06-27 09:44:11,735  INFO TravelDistanceStats:163 (and teleported legs whose route contains a distance.)
2018-06-27 09:44:11,868  INFO ControlerListenerManagerImpl:167 calling notifyIterationEnds on org.matsim.analysis.LegHistogramListener
2018-06-27 09:44:11,878  INFO LegHistogramListener:72 number of legs:	18	100%
2018-06-27 09:44:11,879  INFO LegHistogramListener:79 number of access_walk_tw legs:	4	22.22222222222222%
2018-06-27 09:44:11,879  INFO LegHistogramListener:79 number of egress_walk_tw legs:	4	22.22222222222222%
2018-06-27 09:44:11,880  INFO LegHistogramListener:79 number of twoway_vehicle legs:	10	55.55555555555556%
2018-06-27 09:44:12,552  INFO ControlerListenerManagerImpl:167 calling notifyIterationEnds on org.matsim.analysis.LinkStatsControlerListener
2018-06-27 09:44:12,555  INFO ControlerListenerManagerImpl:167 calling notifyIterationEnds on org.matsim.contrib.carsharing.control.listeners.CarsharingListener
2018-06-27 09:44:12,566  INFO ControlerListenerManagerImpl:171 [it.3] all ControlerIterationEndsListeners called.
2018-06-27 09:44:12,738  INFO AbstractController:165 ### ITERATION 3 ENDS
2018-06-27 09:44:12,739  INFO AbstractController:166 ###################################################
2018-06-27 09:44:12,740  INFO MatsimRuntimeModifications:58 S H U T D O W N   ---   start shutdown.
2018-06-27 09:44:12,741  INFO ControlerListenerManagerImpl:121 calling notifyShutdown on org.matsim.core.controler.corelisteners.EventsHandlingImpl
2018-06-27 09:44:12,742  INFO ControlerListenerManagerImpl:121 calling notifyShutdown on org.matsim.core.controler.corelisteners.DumpDataAtEndImpl
2018-06-27 09:44:12,747  INFO Counter:70 [PopulationWriter] dumped person # 1
2018-06-27 09:44:12,748  INFO Counter:70 [PopulationWriter] dumped person # 2
2018-06-27 09:44:12,750  INFO Counter:70 [PopulationWriter] dumped person # 4
2018-06-27 09:44:12,751  INFO Counter:70 [PopulationWriter] dumped person # 8
2018-06-27 09:44:12,752  INFO PopulationWriter:139 Population written to: test/output/org/matsim/contrib/carsharing/runExample/RunCarsharingIT/test/run1.output_plans.xml.gz
2018-06-27 09:44:12,758  INFO Counter:76 [PopulationWriter] dumped person # 10
2018-06-27 09:44:12,859  INFO NetworkWriter:68 Writing network to file: test/output/org/matsim/contrib/carsharing/runExample/RunCarsharingIT/test/run1.output_network.xml.gz...
2018-06-27 09:44:12,924  INFO NetworkWriter:71 done.
2018-06-27 09:44:12,947  INFO Config:563 setting context tofile:/P:/Eclipse-MATSim/matsim/contribs/carsharing/]
2018-06-27 09:44:12,953  INFO Config:563 setting context tofile:/P:/Eclipse-MATSim/matsim/contribs/carsharing/]
2018-06-27 09:44:12,957  INFO Config:563 setting context tofile:/P:/Eclipse-MATSim/matsim/contribs/carsharing/]
2018-06-27 09:44:12,962  INFO Config:563 setting context tofile:/P:/Eclipse-MATSim/matsim/contribs/carsharing/]
2018-06-27 09:44:12,966  INFO Config:563 setting context tofile:/P:/Eclipse-MATSim/matsim/contribs/carsharing/]
2018-06-27 09:44:12,970  INFO Config:563 setting context tofile:/P:/Eclipse-MATSim/matsim/contribs/carsharing/]
2018-06-27 09:44:12,974  INFO Config:563 setting context tofile:/P:/Eclipse-MATSim/matsim/contribs/carsharing/]
2018-06-27 09:44:12,978  INFO Config:563 setting context tofile:/P:/Eclipse-MATSim/matsim/contribs/carsharing/]
2018-06-27 09:44:12,985  INFO Config:563 setting context tofile:/P:/Eclipse-MATSim/matsim/contribs/carsharing/]
2018-06-27 09:44:12,989  INFO Config:563 setting context tofile:/P:/Eclipse-MATSim/matsim/contribs/carsharing/]
2018-06-27 09:44:12,992  INFO Config:563 setting context tofile:/P:/Eclipse-MATSim/matsim/contribs/carsharing/]
2018-06-27 09:44:12,995  INFO Config:563 setting context tofile:/P:/Eclipse-MATSim/matsim/contribs/carsharing/]
2018-06-27 09:44:12,999  INFO Config:563 setting context tofile:/P:/Eclipse-MATSim/matsim/contribs/carsharing/]
2018-06-27 09:44:13,002  INFO Config:563 setting context tofile:/P:/Eclipse-MATSim/matsim/contribs/carsharing/]
2018-06-27 09:44:13,005  INFO Config:563 setting context tofile:/P:/Eclipse-MATSim/matsim/contribs/carsharing/]
2018-06-27 09:44:13,008  INFO Config:563 setting context tofile:/P:/Eclipse-MATSim/matsim/contribs/carsharing/]
2018-06-27 09:44:13,016  INFO Config:563 setting context tofile:/P:/Eclipse-MATSim/matsim/contribs/carsharing/]
2018-06-27 09:44:13,019  INFO Config:563 setting context tofile:/P:/Eclipse-MATSim/matsim/contribs/carsharing/]
2018-06-27 09:44:13,031  INFO Config:563 setting context tofile:/P:/Eclipse-MATSim/matsim/contribs/carsharing/]
2018-06-27 09:44:13,035  INFO Config:563 setting context tofile:/P:/Eclipse-MATSim/matsim/contribs/carsharing/]
2018-06-27 09:44:13,045  INFO Config:563 setting context tofile:/P:/Eclipse-MATSim/matsim/contribs/carsharing/]
2018-06-27 09:44:13,049  INFO Config:563 setting context tofile:/P:/Eclipse-MATSim/matsim/contribs/carsharing/]
2018-06-27 09:44:13,052  INFO Config:563 setting context tofile:/P:/Eclipse-MATSim/matsim/contribs/carsharing/]
2018-06-27 09:44:13,055  INFO Config:563 setting context tofile:/P:/Eclipse-MATSim/matsim/contribs/carsharing/]
2018-06-27 09:44:13,058  INFO Config:563 setting context tofile:/P:/Eclipse-MATSim/matsim/contribs/carsharing/]
2018-06-27 09:44:13,061  INFO Config:563 setting context tofile:/P:/Eclipse-MATSim/matsim/contribs/carsharing/]
2018-06-27 09:44:13,064  INFO Config:563 setting context tofile:/P:/Eclipse-MATSim/matsim/contribs/carsharing/]
2018-06-27 09:44:13,067  INFO Config:563 setting context tofile:/P:/Eclipse-MATSim/matsim/contribs/carsharing/]
2018-06-27 09:44:13,181  INFO VehicleWriterV1:55 Vehicles written to: test/output/org/matsim/contrib/carsharing/runExample/RunCarsharingIT/test/run1.output_vehicles.xml.gz
2018-06-27 09:44:13,219  INFO Counter:76 [HouseholdsWriter] dumped household # 0
2018-06-27 09:44:13,255  INFO LanesWriter:63 Using LaneDefinitionWriter20...
2018-06-27 09:44:13,256  INFO LanesWriter:72 writing to file: test/output/org/matsim/contrib/carsharing/runExample/RunCarsharingIT/test/run1.output_lanes.xml.gz
2018-06-27 09:44:13,906  INFO ControlerListenerManagerImpl:126 calling notifyShutdown on org.matsim.analysis.ModeStatsControlerListener
2018-06-27 09:44:13,908  INFO ControlerListenerManagerImpl:126 calling notifyShutdown on org.matsim.analysis.ScoreStatsControlerListener
2018-06-27 09:44:13,909  INFO ControlerListenerManagerImpl:126 calling notifyShutdown on org.matsim.analysis.TravelDistanceStatsControlerListener
2018-06-27 09:44:13,911  INFO ControlerListenerManagerImpl:129 all ControlerShutdownListeners called.
2018-06-27 09:44:13,912  INFO MatsimRuntimeModifications:81 S H U T D O W N   ---   shutdown completed.
2018-06-27 09:44:13,912  INFO OutputDirectoryLogging:146 closing the logfile, i.e. messages sent to the logger after this message are not written to the logfile.
