2018-07-18 12:49:43,275  INFO Gbl:59 JVM: 1.8.0_172; Oracle Corporation; mixed mode; 64-bit
2018-07-18 12:49:43,275  INFO Gbl:63 OS: Windows 10; 10.0; amd64
2018-07-18 12:49:43,276  INFO Gbl:66 CPU cores: 4
2018-07-18 12:49:43,276  INFO Gbl:67 max. Memory: 3641.0MB (3817865216B)
2018-07-18 12:49:43,277  INFO Gbl:105 MATSim-Build: r${buildNumber} (${timestamp})
2018-07-18 12:49:43,280  INFO ControlerListenerManagerImpl:107 calling notifyStartup on org.matsim.counts.CountsControlerListener
2018-07-18 12:49:43,280  INFO ControlerListenerManagerImpl:107 calling notifyStartup on org.matsim.analysis.ModeStatsControlerListener
2018-07-18 12:49:43,283 DEBUG NetworkRoutingProvider:75 requesting network routing module with routingMode=car;	mode=car
2018-07-18 12:49:43,287  INFO NetworkImpl:167  node # 1
2018-07-18 12:49:43,288  INFO NetworkImpl:167  node # 4
2018-07-18 12:49:43,288  INFO NetworkImpl:167  node # 16
2018-07-18 12:49:43,289  INFO NetworkImpl:167  node # 64
2018-07-18 12:49:43,290  INFO NetworkImpl:167  node # 256
2018-07-18 12:49:43,293  INFO NetworkImpl:167  node # 1024
2018-07-18 12:49:43,298  INFO NetworkImpl:167  node # 4096
2018-07-18 12:49:43,309  INFO NetworkImpl:163  link # 1
2018-07-18 12:49:43,310  INFO NetworkImpl:163  link # 4
2018-07-18 12:49:43,311  INFO NetworkImpl:163  link # 16
2018-07-18 12:49:43,314  INFO NetworkImpl:163  link # 64
2018-07-18 12:49:43,318  INFO NetworkImpl:163  link # 256
2018-07-18 12:49:43,330  INFO NetworkImpl:163  link # 1024
2018-07-18 12:49:43,362  INFO NetworkImpl:163  link # 4096
2018-07-18 12:49:44,076  INFO NetworkImpl:163  link # 16384
2018-07-18 12:49:44,125  INFO ControlerListenerManagerImpl:107 calling notifyStartup on org.matsim.analysis.ScoreStatsControlerListener
2018-07-18 12:49:44,126  INFO ControlerListenerManagerImpl:110 all ControlerStartupListeners called.
2018-07-18 12:49:44,127  INFO ControlerUtils:58 config dump before iterations start
2018-07-18 12:49:44,141  INFO ControlerUtils:62 

<?xml version="1.0" encoding="UTF-8"?>
<!DOCTYPE config SYSTEM "http://www.matsim.org/files/dtd/config_v2.dtd">
<config>
	<module name="Carsharing" >
		<param name="membership" value="test/input/org/matsim/contrib/carsharing/runExample/RunCarsharingIT//CSMembership.xml" />
		<param name="statsWriterFrequency" value="1" />
		<param name="vehiclelocations" value="test/input/org/matsim/contrib/carsharing/runExample/RunCarsharingIT//CarsharingStations.xml" />
	</module>
	<module name="FreeFloating" >
		<param name="areasFreefloating" value="null" />
		<param name="constantFreeFloating" value="null" />
		<param name="distanceFeeFreeFloating" value="null" />
		<param name="specialTimeEnd" value="null" />
		<param name="specialTimeFee" value="null" />
		<param name="specialTimeStart" value="null" />
		<param name="timeFeeFreeFloating" value="null" />
		<param name="timeParkingFeeFreeFloating" value="null" />
		<param name="travelingFreeFloating" value="null" />
		<param name="useFreeFloating" value="false" />
		<param name="vehiclelocationsFreefloating" value="null" />
	</module>
	<module name="JDEQSim" >
		<param name="carSize" value="7.5" />
		<param name="endTime" value="undefined" />
		<param name="flowCapacityFactor" value="1.0" />
		<param name="gapTravelSpeed" value="15.0" />
		<param name="minimumInFlowCapacity" value="1800.0" />
		<param name="squeezeTime" value="1800.0" />
		<param name="storageCapacityFactor" value="1.0" />
	</module>
	<module name="OneWayCarsharing" >
		<param name="constantOneWayCarsharing" value="null" />
		<param name="distanceFeeOneWayCarsharing" value="null" />
		<param name="rentalPriceTimeOneWayCarsharing" value="null" />
		<param name="searchDistanceOneWayCarsharing" value="null" />
		<param name="timeFeeOneWayCarsharing" value="null" />
		<param name="timeParkingFeeOneWayCarsharing" value="null" />
		<param name="travelingOneWayCarsharing" value="null" />
		<param name="useOneWayCarsharing" value="false" />
		<param name="vehiclelocationsOneWayCarsharing" value="null" />
	</module>
	<module name="TimeAllocationMutator" >
		<!-- Default:true; Defines whether time mutation changes an activity's duration. -->
		<param name="mutationAffectsDuration" value="true" />
		<!-- Default:1800.0; Defines how many seconds a time mutation can maximally shift a time. -->
		<param name="mutationRange" value="1800.0" />
		<!-- false; Use individual settings for each subpopulation. If enabled but no settings are found, regular settings are uses as fallback. -->
		<param name="useIndividualSettingsForSubpopulations" value="false" />
	</module>
	<module name="TwoWayCarsharing" >
		<param name="constantTwoWayCarsharing" value="-0.4" />
		<param name="distanceFeeTwoWayCarsharing" value="-0.0" />
		<param name="rentalPriceTimeTwoWayCarsharing" value="null" />
		<param name="searchDistanceTwoWayCarsharing" value="900.0" />
		<param name="timeFeeTwoWayCarsharing" value="-0.0" />
		<param name="travelingTwoWayCarsharing" value="-6.0" />
		<param name="useTwoWayCarsharing" value="true" />
		<param name="vehiclelocationsTwoWayCarsharing" value="CarsharingStations.xml" />
	</module>
	<module name="changeMode" >
		<!-- Defines whether car availability is considered be considered or not. An agent has no car only if it has no license, or never access to a car. Default: true -->
		<param name="ignoreCarAvailability" value="true" />
		<!-- Defines the mode switch behavior. Possible values [Lorg.matsim.core.config.groups.ChangeModeConfigGroup$Behavior;@6f63b475 Default: fromSpecifiedModesToSpecifiedModes. -->
		<param name="modeSwitchBehavior" value="fromSpecifiedModesToSpecifiedModes" />
		<!-- Defines all the modes available, including chain-based modes, seperated by commas -->
		<param name="modes" value="car,pt" />
	</module>
	<module name="controler" >
		<!-- Sets whether graphs showing some analyses should automatically be generated during the simulation. The generation of graphs usually takes a small amount of time that does not have any weight in big simulations, but add a significant overhead in smaller runs or in test cases where the graphical output is not even requested. -->
		<param name="createGraphs" value="true" />
		<!-- true if at the end of a run, plans, network, config etc should be dumped to a file -->
		<param name="dumpDataAtEnd" value="true" />
		<!-- Default=false. If enabled, the router takes travel times needed for turning moves into account. Cannot be used if the (Fast)AStarLandmarks routing or TravelTimeCalculator.separateModes is enabled. -->
		<param name="enableLinkToLinkRouting" value="false" />
		<!-- Default=xml; Specifies the file format for writing events. Currently supported: xml.
		Multiple values can be specified separated by commas (','). -->
		<param name="eventsFileFormat" value="xml" />
		<!-- Default=0;  -->
		<param name="firstIteration" value="0" />
		<!-- Default=1000;  -->
		<param name="lastIteration" value="1" />
		<!-- Defines which mobility simulation will be used. Currently supported: qsim JDEQSim 
		Depending on the chosen mobsim, you'll have to add additional config modules to configure the corresponding mobsim.
		For 'qsim', add a module 'qsim' to the config. -->
		<param name="mobsim" value="qsim" />
		<param name="outputDirectory" value="test/output/org/matsim/contrib/carsharing/runExample/RunCarsharingIT/test/" />
		<!-- Possible values: failIfDirectoryExists, overwriteExistingFiles, deleteDirectoryIfExists -->
		<param name="overwriteFiles" value="overwriteExistingFiles" />
		<!-- The type of routing (least cost path) algorithm used, may have the values: Dijkstra, FastDijkstra, AStarLandmarks or FastAStarLandmarks -->
		<param name="routingAlgorithmType" value="Dijkstra" />
		<!-- An identifier for the current run which is used as prefix for output files and mentioned in output xml files etc. -->
		<param name="runId" value="run1" />
		<!-- Comma-separated list of visualizer output file formats. `transims', `googleearth', and `otfvis'. -->
		<param name="snapshotFormat" value="" />
		<!-- iterationNumber % writeEventsInterval == 0 defines in which iterations events are written to a file. `0' disables events writing completely. -->
		<param name="writeEventsInterval" value="1" />
		<!-- iterationNumber % writePlansInterval == 0 defines (hopefully) in which iterations plans are written to a file. `0' disables plans writing completely.  Some plans in early iterations are always written -->
		<param name="writePlansInterval" value="1" />
		<!-- iterationNumber % writeSnapshotsInterval == 0 defines in which iterations snapshots are written to a file. `0' disables snapshots writing completely -->
		<param name="writeSnapshotsInterval" value="1" />
	</module>
	<module name="counts" >
		<!-- Transport modes that will be respected for the counts comparison. 'car' is default, which includes also bussed from the pt simulation module. Use this parameter in combination with 'filterModes' = true! -->
		<param name="analyzedModes" value="car" />
		<!-- Specifies over how many iterations the link volumes should be averaged that are used for the counts comparison. Use 1 or 0 to only use the link volumes of a single iteration. This values cannot be larger than the value specified for writeCountsInterval -->
		<param name="averageCountsOverIterations" value="5" />
		<!-- factor by which to re-scale the simulated values.  necessary when simulation runs with something different from 100%.  needs to be adapted manually -->
		<param name="countsScaleFactor" value="1.0" />
		<!-- distance to distanceFilterCenterNode to include counting stations. The unit of distance is the Euclidean distance implied by the coordinate system -->
		<param name="distanceFilter" value="null" />
		<!-- node id for center node of distance filter -->
		<param name="distanceFilterCenterNode" value="null" />
		<!-- If true, link counts from legs performed on modes not included in the 'analyzedModes' parameter are ignored. -->
		<param name="filterModes" value="false" />
		<!-- The Coordinates Reference System in which the coordinates are expressed in the input file. At import, the coordinates will be converted to the coordinate system defined in "global", and willbe converted back at export. If not specified, no conversion happens. -->
		<param name="inputCRS" value="null" />
		<!-- input file name to counts package -->
		<param name="inputCountsFile" value="null" />
		<!-- possible values: `html', `kml', `txt', `all' -->
		<param name="outputformat" value="txt" />
		<!-- Specifies how often the counts comparison should be calculated and written. -->
		<param name="writeCountsInterval" value="10" />
	</module>
	<module name="facilities" >
		<!-- If set to 'true', empty activity option will be created. -->
		<param name="addEmptyActivityOption" value="false" />
		<!-- Default is 'true'. In the case that a facility has no link assigned, the ActivityFacility can be assigned to the closest link. If there should be only one ActivityFacility per link and if no link-assignment should be done, set to 'false'.This will create a new ActivityFacility at the coordinate and the facility will not be assigned to a link. -->
		<param name="assigningLinksToFacilitiesIfMissing" value="true" />
		<!-- If set to 'true', opening time will be assigned to activity facilities from ActivityParams. Default is false. This will NOT override option 'addEmptyActivityOption'. -->
		<param name="assigningOpeningTime" value="false" />
		<!-- This defines how facilities should be created. Possible values: none fromFile setInScenario onePerActivityLocationInPlansFile  -->
		<param name="facilitiesSource" value="none" />
		<!-- A prefix to be used in activityFacility id. -->
		<param name="idPrefix" value="" />
		<!-- The Coordinates Reference System in which the coordinates are expressed in the input file. At import, the coordinates will be converted to the coordinate system defined in "global", and willbe converted back at export. If not specified, no conversion happens. -->
		<param name="inputCRS" value="null" />
		<param name="inputFacilitiesFile" value="null" />
		<param name="inputFacilityAttributesFile" value="null" />
		<!-- Sets whether all activities on a link should be collected within one ActivityFacility. Default is 'true'. If set to 'false', for each coordinate found in the population's activities a separate ActivityFacility will be created. -->
		<param name="oneFacilityPerLink" value="true" />
		<!-- If set to 'true' (which is the default), the link and coordinate attributes are replaced by null reference in the activities, as this information is now available via the facility. -->
		<param name="removingLinksAndCoordinates" value="true" />
	</module>
	<module name="global" >
		<param name="coordinateSystem" value="Atlantis" />
		<param name="insistingOnDeprecatedConfigVersion" value="true" />
		<!-- "global" number of threads.  This number is used, e.g., for replanning, but NOT in the mobsim.  This can typically be set to as many cores as you have available, or possibly even slightly more. -->
		<param name="numberOfThreads" value="4" />
		<param name="randomSeed" value="4711" />
	</module>
	<module name="households" >
		<param name="inputFile" value="null" />
		<param name="inputHouseholdAttributesFile" value="null" />
	</module>
	<module name="linkStats" >
		<!-- Specifies over how many iterations the link volumes should be averaged that are used for the link statistics. Use 1 or 0 to only use the link volumes of a single iteration. This values cannot be larger than the value specified for writeLinkStatsInterval -->
		<param name="averageLinkStatsOverIterations" value="5" />
		<!-- Specifies how often the link stats should be calculated and written. Use 0 to disable the generation of link stats. -->
		<param name="writeLinkStatsInterval" value="10" />
	</module>
	<module name="network" >
		<!-- The Coordinates Reference System in which the coordinates are expressed in the input file. At import, the coordinates will be converted to the coordinate system defined in "global", and willbe converted back at export. If not specified, no conversion happens. -->
		<param name="inputCRS" value="null" />
		<param name="inputChangeEventsFile" value="null" />
		<param name="inputNetworkFile" value="network.xml" />
		<param name="laneDefinitionsFile" value="null" />
		<param name="timeVariantNetwork" value="false" />
	</module>
	<module name="parallelEventHandling" >
		<!-- Estimated number of events during mobsim run. An optional optimization hint for the framework. -->
		<param name="estimatedNumberOfEvents" value="null" />
		<!-- Number of threads for parallel events handler. _null_ means the framework decides by itself. 0 is currently not possible. -->
		<param name="numberOfThreads" value="null" />
		<!-- If enabled, each event handler is assigned to its own thread. Note that enabling this feature disabled the numberOfThreads option! This feature is still experimental! -->
		<param name="oneThreadPerHandler" value="false" />
		<!-- If enabled, it is ensured that all events that are created during a time step of the mobility simulation are processed before the next time step is simulated. E.g. neccessary when within-day replanning is used. -->
		<param name="synchronizeOnSimSteps" value="true" />
	</module>
	<module name="planCalcScore" >
		<!-- logit model scale parameter. default: 1.  Has name and default value for historical reasons (see Bryan Raney's phd thesis). -->
		<param name="BrainExpBeta" value="2.0" />
		<param name="PathSizeLogitBeta" value="1.0" />
		<!-- fraction of iterations at which MSA score averaging is started. The matsim theory department suggests to use this together with switching off choice set innovation (where a similar switch exists), but it has not been tested yet. -->
		<param name="fractionOfIterationsToStartScoreMSA" value="null" />
		<!-- new_score = (1-learningRate)*old_score + learningRate * score_from_mobsim.  learning rates close to zero emulate score averaging, but slow down initial convergence -->
		<param name="learningRate" value="1.0" />
		<!-- There used to be a plateau between duration=0 and duration=zeroUtilityDuration. This caused durations to evolve to zero once they were below zeroUtilityDuration, causing problems.  Only use this switch if you need to be backwards compatible with some old results.  (changed nov'13) -->
		<param name="usingOldScoringBelowZeroUtilityDuration" value="false" />
		<!-- write a plans file in each iteration directory which contains what each agent actually did, and the score it received. -->
		<param name="writeExperiencedPlans" value="true" />
		<parameterset type="scoringParameters" >
			<param name="earlyDeparture" value="0.0" />
			<param name="lateArrival" value="-18.0" />
			<param name="marginalUtilityOfMoney" value="1.0" />
			<param name="performing" value="6.0" />
			<param name="subpopulation" value="null" />
			<param name="utilityOfLineSwitch" value="-1.0" />
			<param name="waiting" value="0.0" />
			<param name="waitingPt" value="-6.0" />
			<parameterset type="activityParams" >
				<param name="activityType" value="dummy" />
				<param name="closingTime" value="undefined" />
				<param name="earliestEndTime" value="undefined" />
				<param name="latestStartTime" value="undefined" />
				<param name="minimalDuration" value="undefined" />
				<param name="openingTime" value="undefined" />
				<param name="priority" value="1.0" />
				<param name="scoringThisActivityAtAll" value="false" />
				<!-- typical duration of activity.  needs to be defined and non-zero.  in sec. -->
				<param name="typicalDuration" value="02:00:00" />
				<!-- method to compute score at typical duration.  Options: | uniform | relative | Use uniform for backwards compatibility (all activities same score; higher proba to drop long acts). -->
				<param name="typicalDurationScoreComputation" value="relative" />
			</parameterset>
			<parameterset type="activityParams" >
				<param name="activityType" value="pt interaction" />
				<param name="closingTime" value="undefined" />
				<param name="earliestEndTime" value="undefined" />
				<param name="latestStartTime" value="undefined" />
				<param name="minimalDuration" value="undefined" />
				<param name="openingTime" value="undefined" />
				<param name="priority" value="1.0" />
				<param name="scoringThisActivityAtAll" value="false" />
				<!-- typical duration of activity.  needs to be defined and non-zero.  in sec. -->
				<param name="typicalDuration" value="undefined" />
				<!-- method to compute score at typical duration.  Options: | uniform | relative | Use uniform for backwards compatibility (all activities same score; higher proba to drop long acts). -->
				<param name="typicalDurationScoreComputation" value="relative" />
			</parameterset>
			<parameterset type="activityParams" >
				<param name="activityType" value="h" />
				<param name="closingTime" value="undefined" />
				<param name="earliestEndTime" value="undefined" />
				<param name="latestStartTime" value="undefined" />
				<param name="minimalDuration" value="08:00:00" />
				<param name="openingTime" value="undefined" />
				<param name="priority" value="1.0" />
				<param name="scoringThisActivityAtAll" value="true" />
				<!-- typical duration of activity.  needs to be defined and non-zero.  in sec. -->
				<param name="typicalDuration" value="08:00:00" />
				<!-- method to compute score at typical duration.  Options: | uniform | relative | Use uniform for backwards compatibility (all activities same score; higher proba to drop long acts). -->
				<param name="typicalDurationScoreComputation" value="relative" />
			</parameterset>
			<parameterset type="activityParams" >
				<param name="activityType" value="w" />
				<param name="closingTime" value="undefined" />
				<param name="earliestEndTime" value="undefined" />
				<param name="latestStartTime" value="undefined" />
				<param name="minimalDuration" value="07:00:00" />
				<param name="openingTime" value="undefined" />
				<param name="priority" value="1.0" />
				<param name="scoringThisActivityAtAll" value="true" />
				<!-- typical duration of activity.  needs to be defined and non-zero.  in sec. -->
				<param name="typicalDuration" value="06:00:00" />
				<!-- method to compute score at typical duration.  Options: | uniform | relative | Use uniform for backwards compatibility (all activities same score; higher proba to drop long acts). -->
				<param name="typicalDurationScoreComputation" value="relative" />
			</parameterset>
			<parameterset type="activityParams" >
				<param name="activityType" value="car interaction" />
				<param name="closingTime" value="undefined" />
				<param name="earliestEndTime" value="undefined" />
				<param name="latestStartTime" value="undefined" />
				<param name="minimalDuration" value="undefined" />
				<param name="openingTime" value="undefined" />
				<param name="priority" value="1.0" />
				<param name="scoringThisActivityAtAll" value="true" />
				<!-- typical duration of activity.  needs to be defined and non-zero.  in sec. -->
				<param name="typicalDuration" value="00:02:00" />
				<!-- method to compute score at typical duration.  Options: | uniform | relative | Use uniform for backwards compatibility (all activities same score; higher proba to drop long acts). -->
				<param name="typicalDurationScoreComputation" value="relative" />
			</parameterset>
			<parameterset type="activityParams" >
				<param name="activityType" value="bike interaction" />
				<param name="closingTime" value="undefined" />
				<param name="earliestEndTime" value="undefined" />
				<param name="latestStartTime" value="undefined" />
				<param name="minimalDuration" value="undefined" />
				<param name="openingTime" value="undefined" />
				<param name="priority" value="1.0" />
				<param name="scoringThisActivityAtAll" value="true" />
				<!-- typical duration of activity.  needs to be defined and non-zero.  in sec. -->
				<param name="typicalDuration" value="00:02:00" />
				<!-- method to compute score at typical duration.  Options: | uniform | relative | Use uniform for backwards compatibility (all activities same score; higher proba to drop long acts). -->
				<param name="typicalDurationScoreComputation" value="relative" />
			</parameterset>
			<parameterset type="activityParams" >
				<param name="activityType" value="other interaction" />
				<param name="closingTime" value="undefined" />
				<param name="earliestEndTime" value="undefined" />
				<param name="latestStartTime" value="undefined" />
				<param name="minimalDuration" value="undefined" />
				<param name="openingTime" value="undefined" />
				<param name="priority" value="1.0" />
				<param name="scoringThisActivityAtAll" value="true" />
				<!-- typical duration of activity.  needs to be defined and non-zero.  in sec. -->
				<param name="typicalDuration" value="00:02:00" />
				<!-- method to compute score at typical duration.  Options: | uniform | relative | Use uniform for backwards compatibility (all activities same score; higher proba to drop long acts). -->
				<param name="typicalDurationScoreComputation" value="relative" />
			</parameterset>
			<parameterset type="activityParams" >
				<param name="activityType" value="walk interaction" />
				<param name="closingTime" value="undefined" />
				<param name="earliestEndTime" value="undefined" />
				<param name="latestStartTime" value="undefined" />
				<param name="minimalDuration" value="undefined" />
				<param name="openingTime" value="undefined" />
				<param name="priority" value="1.0" />
				<param name="scoringThisActivityAtAll" value="true" />
				<!-- typical duration of activity.  needs to be defined and non-zero.  in sec. -->
				<param name="typicalDuration" value="00:02:00" />
				<!-- method to compute score at typical duration.  Options: | uniform | relative | Use uniform for backwards compatibility (all activities same score; higher proba to drop long acts). -->
				<param name="typicalDurationScoreComputation" value="relative" />
			</parameterset>
			<parameterset type="activityParams" >
				<param name="activityType" value="ff_interaction" />
				<param name="closingTime" value="00:00:00" />
				<param name="earliestEndTime" value="undefined" />
				<param name="latestStartTime" value="undefined" />
				<param name="minimalDuration" value="00:00:00" />
				<param name="openingTime" value="08:00:00" />
				<param name="priority" value="1.0" />
				<param name="scoringThisActivityAtAll" value="true" />
				<!-- typical duration of activity.  needs to be defined and non-zero.  in sec. -->
				<param name="typicalDuration" value="00:02:00" />
				<!-- method to compute score at typical duration.  Options: | uniform | relative | Use uniform for backwards compatibility (all activities same score; higher proba to drop long acts). -->
				<param name="typicalDurationScoreComputation" value="relative" />
			</parameterset>
			<parameterset type="activityParams" >
				<param name="activityType" value="ow_interaction" />
				<param name="closingTime" value="00:00:00" />
				<param name="earliestEndTime" value="undefined" />
				<param name="latestStartTime" value="undefined" />
				<param name="minimalDuration" value="00:00:00" />
				<param name="openingTime" value="08:00:00" />
				<param name="priority" value="1.0" />
				<param name="scoringThisActivityAtAll" value="true" />
				<!-- typical duration of activity.  needs to be defined and non-zero.  in sec. -->
				<param name="typicalDuration" value="00:02:00" />
				<!-- method to compute score at typical duration.  Options: | uniform | relative | Use uniform for backwards compatibility (all activities same score; higher proba to drop long acts). -->
				<param name="typicalDurationScoreComputation" value="relative" />
			</parameterset>
			<parameterset type="activityParams" >
				<param name="activityType" value="tw_interaction" />
				<param name="closingTime" value="00:00:00" />
				<param name="earliestEndTime" value="undefined" />
				<param name="latestStartTime" value="undefined" />
				<param name="minimalDuration" value="00:00:00" />
				<param name="openingTime" value="08:00:00" />
				<param name="priority" value="1.0" />
				<param name="scoringThisActivityAtAll" value="true" />
				<!-- typical duration of activity.  needs to be defined and non-zero.  in sec. -->
				<param name="typicalDuration" value="00:02:00" />
				<!-- method to compute score at typical duration.  Options: | uniform | relative | Use uniform for backwards compatibility (all activities same score; higher proba to drop long acts). -->
				<param name="typicalDurationScoreComputation" value="relative" />
			</parameterset>
			<parameterset type="activityParams" >
				<param name="activityType" value="leisure" />
				<param name="closingTime" value="undefined" />
				<param name="earliestEndTime" value="undefined" />
				<param name="latestStartTime" value="undefined" />
				<param name="minimalDuration" value="undefined" />
				<param name="openingTime" value="undefined" />
				<param name="priority" value="1.0" />
				<param name="scoringThisActivityAtAll" value="true" />
				<!-- typical duration of activity.  needs to be defined and non-zero.  in sec. -->
				<param name="typicalDuration" value="02:00:00" />
				<!-- method to compute score at typical duration.  Options: | uniform | relative | Use uniform for backwards compatibility (all activities same score; higher proba to drop long acts). -->
				<param name="typicalDurationScoreComputation" value="relative" />
			</parameterset>
			<parameterset type="activityParams" >
				<param name="activityType" value="shopping" />
				<param name="closingTime" value="undefined" />
				<param name="earliestEndTime" value="undefined" />
				<param name="latestStartTime" value="undefined" />
				<param name="minimalDuration" value="undefined" />
				<param name="openingTime" value="undefined" />
				<param name="priority" value="1.0" />
				<param name="scoringThisActivityAtAll" value="true" />
				<!-- typical duration of activity.  needs to be defined and non-zero.  in sec. -->
				<param name="typicalDuration" value="01:00:00" />
				<!-- method to compute score at typical duration.  Options: | uniform | relative | Use uniform for backwards compatibility (all activities same score; higher proba to drop long acts). -->
				<param name="typicalDurationScoreComputation" value="relative" />
			</parameterset>
			<parameterset type="activityParams" >
				<param name="activityType" value="other" />
				<param name="closingTime" value="undefined" />
				<param name="earliestEndTime" value="undefined" />
				<param name="latestStartTime" value="undefined" />
				<param name="minimalDuration" value="undefined" />
				<param name="openingTime" value="undefined" />
				<param name="priority" value="1.0" />
				<param name="scoringThisActivityAtAll" value="true" />
				<!-- typical duration of activity.  needs to be defined and non-zero.  in sec. -->
				<param name="typicalDuration" value="00:30:00" />
				<!-- method to compute score at typical duration.  Options: | uniform | relative | Use uniform for backwards compatibility (all activities same score; higher proba to drop long acts). -->
				<param name="typicalDurationScoreComputation" value="relative" />
			</parameterset>
			<parameterset type="modeParams" >
				<!-- [utils] alternative-specific constant.  no guarantee that this is used anywhere. default=0 to be backwards compatible for the time being -->
				<param name="constant" value="-0.4" />
				<!-- [utils/m] utility of walking per m, normally negative.  this is on top of the time (dis)utility. -->
				<param name="marginalUtilityOfDistance_util_m" value="0.0" />
				<!-- [utils/hr] additional marginal utility of traveling.  normally negative.  this comes on top of the opportunity cost of time -->
				<param name="marginalUtilityOfTraveling_util_hr" value="-6.0" />
				<param name="mode" value="car" />
				<!-- [unit_of_money/m] conversion of distance into money. Normally negative. -->
				<param name="monetaryDistanceRate" value="0.0" />
			</parameterset>
			<parameterset type="modeParams" >
				<!-- [utils] alternative-specific constant.  no guarantee that this is used anywhere. default=0 to be backwards compatible for the time being -->
				<param name="constant" value="-4.0" />
				<!-- [utils/m] utility of walking per m, normally negative.  this is on top of the time (dis)utility. -->
				<param name="marginalUtilityOfDistance_util_m" value="0.0" />
				<!-- [utils/hr] additional marginal utility of traveling.  normally negative.  this comes on top of the opportunity cost of time -->
				<param name="marginalUtilityOfTraveling_util_hr" value="-6.0" />
				<param name="mode" value="pt" />
				<!-- [unit_of_money/m] conversion of distance into money. Normally negative. -->
				<param name="monetaryDistanceRate" value="0.0" />
			</parameterset>
			<parameterset type="modeParams" >
				<!-- [utils] alternative-specific constant.  no guarantee that this is used anywhere. default=0 to be backwards compatible for the time being -->
				<param name="constant" value="-0.0" />
				<!-- [utils/m] utility of walking per m, normally negative.  this is on top of the time (dis)utility. -->
				<param name="marginalUtilityOfDistance_util_m" value="0.0" />
				<!-- [utils/hr] additional marginal utility of traveling.  normally negative.  this comes on top of the opportunity cost of time -->
				<param name="marginalUtilityOfTraveling_util_hr" value="-6.0" />
				<param name="mode" value="walk" />
				<!-- [unit_of_money/m] conversion of distance into money. Normally negative. -->
				<param name="monetaryDistanceRate" value="0.0" />
			</parameterset>
			<parameterset type="modeParams" >
				<!-- [utils] alternative-specific constant.  no guarantee that this is used anywhere. default=0 to be backwards compatible for the time being -->
				<param name="constant" value="-0.4" />
				<!-- [utils/m] utility of walking per m, normally negative.  this is on top of the time (dis)utility. -->
				<param name="marginalUtilityOfDistance_util_m" value="0.0" />
				<!-- [utils/hr] additional marginal utility of traveling.  normally negative.  this comes on top of the opportunity cost of time -->
				<param name="marginalUtilityOfTraveling_util_hr" value="-26.0" />
				<param name="mode" value="bike" />
				<!-- [unit_of_money/m] conversion of distance into money. Normally negative. -->
				<param name="monetaryDistanceRate" value="0.0" />
			</parameterset>
			<parameterset type="modeParams" >
				<!-- [utils] alternative-specific constant.  no guarantee that this is used anywhere. default=0 to be backwards compatible for the time being -->
				<param name="constant" value="0.0" />
				<!-- [utils/m] utility of walking per m, normally negative.  this is on top of the time (dis)utility. -->
				<param name="marginalUtilityOfDistance_util_m" value="0.0" />
				<!-- [utils/hr] additional marginal utility of traveling.  normally negative.  this comes on top of the opportunity cost of time -->
				<param name="marginalUtilityOfTraveling_util_hr" value="-6.0" />
				<param name="mode" value="ride" />
				<!-- [unit_of_money/m] conversion of distance into money. Normally negative. -->
				<param name="monetaryDistanceRate" value="0.0" />
			</parameterset>
			<parameterset type="modeParams" >
				<!-- [utils] alternative-specific constant.  no guarantee that this is used anywhere. default=0 to be backwards compatible for the time being -->
				<param name="constant" value="0.0" />
				<!-- [utils/m] utility of walking per m, normally negative.  this is on top of the time (dis)utility. -->
				<param name="marginalUtilityOfDistance_util_m" value="0.0" />
				<!-- [utils/hr] additional marginal utility of traveling.  normally negative.  this comes on top of the opportunity cost of time -->
				<param name="marginalUtilityOfTraveling_util_hr" value="-6.0" />
				<param name="mode" value="other" />
				<!-- [unit_of_money/m] conversion of distance into money. Normally negative. -->
				<param name="monetaryDistanceRate" value="0.0" />
			</parameterset>
			<parameterset type="modeParams" >
				<!-- [utils] alternative-specific constant.  no guarantee that this is used anywhere. default=0 to be backwards compatible for the time being -->
				<param name="constant" value="0.0" />
				<!-- [utils/m] utility of walking per m, normally negative.  this is on top of the time (dis)utility. -->
				<param name="marginalUtilityOfDistance_util_m" value="0.0" />
				<!-- [utils/hr] additional marginal utility of traveling.  normally negative.  this comes on top of the opportunity cost of time -->
				<param name="marginalUtilityOfTraveling_util_hr" value="-6.0" />
				<param name="mode" value="access_walk_tw" />
				<!-- [unit_of_money/m] conversion of distance into money. Normally negative. -->
				<param name="monetaryDistanceRate" value="0.0" />
			</parameterset>
			<parameterset type="modeParams" >
				<!-- [utils] alternative-specific constant.  no guarantee that this is used anywhere. default=0 to be backwards compatible for the time being -->
				<param name="constant" value="0.0" />
				<!-- [utils/m] utility of walking per m, normally negative.  this is on top of the time (dis)utility. -->
				<param name="marginalUtilityOfDistance_util_m" value="0.0" />
				<!-- [utils/hr] additional marginal utility of traveling.  normally negative.  this comes on top of the opportunity cost of time -->
				<param name="marginalUtilityOfTraveling_util_hr" value="-6.0" />
				<param name="mode" value="egress_walk_tw" />
				<!-- [unit_of_money/m] conversion of distance into money. Normally negative. -->
				<param name="monetaryDistanceRate" value="0.0" />
			</parameterset>
			<parameterset type="modeParams" >
				<!-- [utils] alternative-specific constant.  no guarantee that this is used anywhere. default=0 to be backwards compatible for the time being -->
				<param name="constant" value="0.0" />
				<!-- [utils/m] utility of walking per m, normally negative.  this is on top of the time (dis)utility. -->
				<param name="marginalUtilityOfDistance_util_m" value="0.0" />
				<!-- [utils/hr] additional marginal utility of traveling.  normally negative.  this comes on top of the opportunity cost of time -->
				<param name="marginalUtilityOfTraveling_util_hr" value="-6.0" />
				<param name="mode" value="twoway_vehicle" />
				<!-- [unit_of_money/m] conversion of distance into money. Normally negative. -->
				<param name="monetaryDistanceRate" value="0.0" />
			</parameterset>
			<parameterset type="modeParams" >
				<!-- [utils] alternative-specific constant.  no guarantee that this is used anywhere. default=0 to be backwards compatible for the time being -->
				<param name="constant" value="0.0" />
				<!-- [utils/m] utility of walking per m, normally negative.  this is on top of the time (dis)utility. -->
				<param name="marginalUtilityOfDistance_util_m" value="0.0" />
				<!-- [utils/hr] additional marginal utility of traveling.  normally negative.  this comes on top of the opportunity cost of time -->
				<param name="marginalUtilityOfTraveling_util_hr" value="0.0" />
				<param name="mode" value="access_walk_ff" />
				<!-- [unit_of_money/m] conversion of distance into money. Normally negative. -->
				<param name="monetaryDistanceRate" value="0.0" />
			</parameterset>
			<parameterset type="modeParams" >
				<!-- [utils] alternative-specific constant.  no guarantee that this is used anywhere. default=0 to be backwards compatible for the time being -->
				<param name="constant" value="0.0" />
				<!-- [utils/m] utility of walking per m, normally negative.  this is on top of the time (dis)utility. -->
				<param name="marginalUtilityOfDistance_util_m" value="0.0" />
				<!-- [utils/hr] additional marginal utility of traveling.  normally negative.  this comes on top of the opportunity cost of time -->
				<param name="marginalUtilityOfTraveling_util_hr" value="0.0" />
				<param name="mode" value="egress_walk_ff" />
				<!-- [unit_of_money/m] conversion of distance into money. Normally negative. -->
				<param name="monetaryDistanceRate" value="0.0" />
			</parameterset>
			<parameterset type="modeParams" >
				<!-- [utils] alternative-specific constant.  no guarantee that this is used anywhere. default=0 to be backwards compatible for the time being -->
				<param name="constant" value="0.0" />
				<!-- [utils/m] utility of walking per m, normally negative.  this is on top of the time (dis)utility. -->
				<param name="marginalUtilityOfDistance_util_m" value="0.0" />
				<!-- [utils/hr] additional marginal utility of traveling.  normally negative.  this comes on top of the opportunity cost of time -->
				<param name="marginalUtilityOfTraveling_util_hr" value="0.0" />
				<param name="mode" value="freefloating_vehicle" />
				<!-- [unit_of_money/m] conversion of distance into money. Normally negative. -->
				<param name="monetaryDistanceRate" value="0.0" />
			</parameterset>
			<parameterset type="modeParams" >
				<!-- [utils] alternative-specific constant.  no guarantee that this is used anywhere. default=0 to be backwards compatible for the time being -->
				<param name="constant" value="0.0" />
				<!-- [utils/m] utility of walking per m, normally negative.  this is on top of the time (dis)utility. -->
				<param name="marginalUtilityOfDistance_util_m" value="0.0" />
				<!-- [utils/hr] additional marginal utility of traveling.  normally negative.  this comes on top of the opportunity cost of time -->
				<param name="marginalUtilityOfTraveling_util_hr" value="0.0" />
				<param name="mode" value="access_walk_ow" />
				<!-- [unit_of_money/m] conversion of distance into money. Normally negative. -->
				<param name="monetaryDistanceRate" value="0.0" />
			</parameterset>
			<parameterset type="modeParams" >
				<!-- [utils] alternative-specific constant.  no guarantee that this is used anywhere. default=0 to be backwards compatible for the time being -->
				<param name="constant" value="0.0" />
				<!-- [utils/m] utility of walking per m, normally negative.  this is on top of the time (dis)utility. -->
				<param name="marginalUtilityOfDistance_util_m" value="0.0" />
				<!-- [utils/hr] additional marginal utility of traveling.  normally negative.  this comes on top of the opportunity cost of time -->
				<param name="marginalUtilityOfTraveling_util_hr" value="0.0" />
				<param name="mode" value="egress_walk_ow" />
				<!-- [unit_of_money/m] conversion of distance into money. Normally negative. -->
				<param name="monetaryDistanceRate" value="0.0" />
			</parameterset>
			<parameterset type="modeParams" >
				<!-- [utils] alternative-specific constant.  no guarantee that this is used anywhere. default=0 to be backwards compatible for the time being -->
				<param name="constant" value="0.0" />
				<!-- [utils/m] utility of walking per m, normally negative.  this is on top of the time (dis)utility. -->
				<param name="marginalUtilityOfDistance_util_m" value="0.0" />
				<!-- [utils/hr] additional marginal utility of traveling.  normally negative.  this comes on top of the opportunity cost of time -->
				<param name="marginalUtilityOfTraveling_util_hr" value="0.0" />
				<param name="mode" value="oneway_vehicle" />
				<!-- [unit_of_money/m] conversion of distance into money. Normally negative. -->
				<param name="monetaryDistanceRate" value="0.0" />
			</parameterset>
		</parameterset>
	</module>
	<module name="plans" >
		<!-- String: minOfDurationAndEndTime tryEndTimeThenDuration endTimeOnly. Anything besides minOfDurationAndEndTime will internally use a different (simpler) version of the TimeAllocationMutator. -->
		<param name="activityDurationInterpretation" value="tryEndTimeThenDuration" />
		<!-- The Coordinates Reference System in which the coordinates are expressed in the input file. At import, the coordinates will be converted to the coordinate system defined in "global", and willbe converted back at export. If not specified, no conversion happens. -->
		<param name="inputCRS" value="null" />
		<!-- Path to a file containing person attributes (required file format: ObjectAttributes). -->
		<param name="inputPersonAttributesFile" value="plansAttributes.xml" />
		<param name="inputPlansFile" value="plans.xml" />
		<!-- Defines how routes are stored in memory. Currently supported: LinkNetworkRoute, CompressedNetworkRoute. -->
		<param name="networkRouteType" value="LinkNetworkRoute" />
		<!-- (not tested) will remove plan attributes that are presumably not used, such as activityStartTime. default=false -->
		<param name="removingUnnecessaryPlanAttributes" value="false" />
		<!-- Name of the (Object)Attribute defining the subpopulation to which pertains a Person (as freight, through traffic, etc.). The attribute must be of String type.  Change away from default only in desperate situations. -->
		<param name="subpopulationAttributeName" value="subpopulation" />
	</module>
	<module name="planscalcroute" >
		<!-- All the modes for which the router is supposed to generate network routes (like car) -->
		<param name="networkModes" value="car" />
		<parameterset type="teleportedModeParameters" >
			<param name="beelineDistanceFactor" value="1.3" />
			<param name="mode" value="bike" />
			<!-- Free-speed factor for a teleported mode. Travel time = teleportedModeFreespeedFactor * <freespeed car travel time>. Insert a line like this for every such mode. Please do not set teleportedModeFreespeedFactor as well as teleportedModeSpeed for the same mode, but if you do, +teleportedModeFreespeedFactor wins over teleportedModeSpeed. -->
			<param name="teleportedModeFreespeedFactor" value="null" />
			<!-- Speed for a teleported mode. Travel time = (<beeline distance> * beelineDistanceFactor) / teleportedModeSpeed. Insert a line like this for every such mode. -->
			<param name="teleportedModeSpeed" value="4.166666666666667" />
		</parameterset>
		<parameterset type="teleportedModeParameters" >
			<param name="beelineDistanceFactor" value="1.3" />
			<param name="mode" value="walk" />
			<!-- Free-speed factor for a teleported mode. Travel time = teleportedModeFreespeedFactor * <freespeed car travel time>. Insert a line like this for every such mode. Please do not set teleportedModeFreespeedFactor as well as teleportedModeSpeed for the same mode, but if you do, +teleportedModeFreespeedFactor wins over teleportedModeSpeed. -->
			<param name="teleportedModeFreespeedFactor" value="null" />
			<!-- Speed for a teleported mode. Travel time = (<beeline distance> * beelineDistanceFactor) / teleportedModeSpeed. Insert a line like this for every such mode. -->
			<param name="teleportedModeSpeed" value="0.8333333333333333" />
		</parameterset>
		<parameterset type="teleportedModeParameters" >
			<param name="beelineDistanceFactor" value="1.3" />
			<param name="mode" value="undefined" />
			<!-- Free-speed factor for a teleported mode. Travel time = teleportedModeFreespeedFactor * <freespeed car travel time>. Insert a line like this for every such mode. Please do not set teleportedModeFreespeedFactor as well as teleportedModeSpeed for the same mode, but if you do, +teleportedModeFreespeedFactor wins over teleportedModeSpeed. -->
			<param name="teleportedModeFreespeedFactor" value="null" />
			<!-- Speed for a teleported mode. Travel time = (<beeline distance> * beelineDistanceFactor) / teleportedModeSpeed. Insert a line like this for every such mode. -->
			<param name="teleportedModeSpeed" value="13.88888888888889" />
		</parameterset>
		<parameterset type="teleportedModeParameters" >
			<param name="beelineDistanceFactor" value="1.3" />
			<param name="mode" value="ride" />
			<!-- Free-speed factor for a teleported mode. Travel time = teleportedModeFreespeedFactor * <freespeed car travel time>. Insert a line like this for every such mode. Please do not set teleportedModeFreespeedFactor as well as teleportedModeSpeed for the same mode, but if you do, +teleportedModeFreespeedFactor wins over teleportedModeSpeed. -->
			<param name="teleportedModeFreespeedFactor" value="1.0" />
			<!-- Speed for a teleported mode. Travel time = (<beeline distance> * beelineDistanceFactor) / teleportedModeSpeed. Insert a line like this for every such mode. -->
			<param name="teleportedModeSpeed" value="null" />
		</parameterset>
		<parameterset type="teleportedModeParameters" >
			<param name="beelineDistanceFactor" value="1.3" />
			<param name="mode" value="pt" />
			<!-- Free-speed factor for a teleported mode. Travel time = teleportedModeFreespeedFactor * <freespeed car travel time>. Insert a line like this for every such mode. Please do not set teleportedModeFreespeedFactor as well as teleportedModeSpeed for the same mode, but if you do, +teleportedModeFreespeedFactor wins over teleportedModeSpeed. -->
			<param name="teleportedModeFreespeedFactor" value="null" />
			<!-- Speed for a teleported mode. Travel time = (<beeline distance> * beelineDistanceFactor) / teleportedModeSpeed. Insert a line like this for every such mode. -->
			<param name="teleportedModeSpeed" value="4.5" />
		</parameterset>
	</module>
	<module name="ptCounts" >
		<!-- factor by which to re-scale the simulated values.  necessary when simulation runs with something different from 100%.  needs to be adapted manually -->
		<param name="countsScaleFactor" value="1.0" />
		<!-- distance to distanceFilterCenterNode to include counting stations. The unit of distance is the Euclidean distance implied by the coordinate system -->
		<param name="distanceFilter" value="null" />
		<!-- node id for center node of distance filter -->
		<param name="distanceFilterCenterNode" value="null" />
		<!-- input file containing the alighting (getting off) counts for pt -->
		<param name="inputAlightCountsFile" value="null" />
		<!-- input file containing the boarding (getting on) counts for pt -->
		<param name="inputBoardCountsFile" value="null" />
		<!-- input file containing the occupancy counts for pt -->
		<param name="inputOccupancyCountsFile" value="null" />
		<!-- possible values: `html', `kml', `txt', `all' -->
		<param name="outputformat" value="null" />
		<!-- every how many iterations (starting with 0) counts comparisons are generated -->
		<param name="ptCountsInterval" value="10" />
	</module>
	<module name="qsim" >
		<!-- If set to true, creates a vehicle for each person corresponding to every network mode. However, this will be overridden if vehicle source is fromVehiclesData. -->
		<param name="creatingVehiclesForAllNetworkModes" value="true" />
		<param name="endTime" value="00:00:00" />
		<param name="flowCapacityFactor" value="1.0" />
		<!-- decides if waiting vehicles enter the network after or before the already driving vehicles were moved. Default: false -->
		<param name="insertingWaitingVehiclesBeforeDrivingVehicles" value="false" />
		<!-- If link dynamics is set as SeepageQ, set to false if all seep modes should perform seepage. Default is true (better option). -->
		<param name="isRestrictingSeepage" value="true" />
		<!-- If link dynamics is set as SeepageQ, set to true if seep mode do not consumes any space on the link. Default is false. -->
		<param name="isSeepModeStorageFree" value="false" />
		<!-- default: FIFO; options: FIFO PassingQ SeepageQ -->
		<param name="linkDynamics" value="FIFO" />
		<!-- The (initial) width of the links of the network. Use positive floating point values. This is used only for visualisation. -->
		<param name="linkWidth" value="30.0" />
		<!-- [comma-separated list] Defines which modes are congested modes. Technically, these are the modes that the departure handler of the netsimengine handles.  Effective cell size, effective lane width, flow capacity factor, and storage capacity factor need to be set with diligence.  Need to be vehicular modes to make sense. -->
		<param name="mainMode" value="car,twoway_vehicle" />
		<!-- Shortens a link in the visualization, i.e. its start and end point are moved into towards the center. Does not affect traffic flow.  -->
		<param name="nodeOffset" value="0.0" />
		<!-- Number of threads used for the QSim.  Note that this setting is independent from the "global" threads setting.  In contrast to earlier versions, the non-parallel special version is no longer there. -->
		<param name="numberOfThreads" value="1" />
		<!-- Boolean. `true': stuck vehicles are removed, aborting the plan; `false': stuck vehicles are forced into the next link. `false' is probably the better choice. -->
		<param name="removeStuckVehicles" value="false" />
		<!-- If link dynamics is set as SeepageQ, set a seep mode. Default is bike. -->
		<param name="seepMode" value="bike" />
		<!-- Possible values: minOfEndtimeAndMobsimFinished, onlyUseEndtime -->
		<param name="simEndtimeInterpretation" value="null" />
		<!-- Options: maxOfStarttimeAndEarliestActivityEnd onlyUseStarttime  -->
		<param name="simStarttimeInterpretation" value="maxOfStarttimeAndEarliestActivityEnd" />
		<!-- snapshotStyle. One of: equiDist queue withHoles withHolesAndShowHoles kinematicWaves  -->
		<param name="snapshotStyle" value="equiDist" />
		<param name="snapshotperiod" value="00:00:00" />
		<param name="startTime" value="undefined" />
		<param name="storageCapacityFactor" value="10.0" />
		<!-- time in seconds.  Time after which the frontmost vehicle on a link is called `stuck' if it does not move. -->
		<param name="stuckTime" value="10.0" />
		<param name="timeStepSize" value="00:00:01" />
		<!-- options: queue withHoles kinematicWaves  -->
		<param name="trafficDynamics" value="queue" />
		<!-- Set this parameter to true if lanes should be used, false if not. -->
		<param name="useLanes" value="false" />
		<!-- If a route does not reference a vehicle, agents will use the vehicle with the same id as their own. -->
		<param name="usePersonIdForMissingVehicleId" value="true" />
		<!-- If false, the qsim accumulates fractional flows up to one flow unit in every time step.  If true, flows are updated only if an agent wants to enter the link or an agent is added to buffer. Default is true. -->
		<param name="usingFastCapacityUpdate" value="true" />
		<!-- if the qsim should use as many runners as there are threads (Christoph's dissertation version) or more of them, together with a thread pool (seems to be faster in some situations, but is not tested). -->
		<param name="usingThreadpool" value="true" />
		<!-- Defines what happens if an agent wants to depart, but the specified vehicle is not available. One of: teleport wait exception  -->
		<param name="vehicleBehavior" value="teleport" />
		<!-- If vehicles should all be the same default vehicle, or come from the vehicles file, or something else.  Possible values:  defaultVehicle modeVehicleTypesFromVehiclesData fromVehiclesData -->
		<param name="vehiclesSource" value="defaultVehicle" />
	</module>
	<module name="strategy" >
		<!-- the external executable will be called with a config file as argument.  This is the pathname to a possible skeleton config, to which additional information will be added.  Can be null. -->
		<param name="ExternalExeConfigTemplate" value="null" />
		<!-- time out value (in seconds) after which matsim will consider the external strategy as failed -->
		<param name="ExternalExeTimeOut" value="3600" />
		<!-- root directory for temporary files generated by the external executable. Provided as a service; I don't think this is used by MATSim. -->
		<param name="ExternalExeTmpFileRootDir" value="null" />
		<!-- fraction of iterations where innovative strategies are switched off.  Something link 0.8 should be good.  E.g. if you run from iteration 400 to iteration 500, innovation is switched off at iteration 480 -->
		<param name="fractionOfIterationsToDisableInnovation" value="Infinity" />
		<!-- maximum number of plans per agent.  ``0'' means ``infinity''.  Currently (2010), ``5'' is a good number -->
		<param name="maxAgentPlanMemorySize" value="5" />
		<!-- strategyName of PlanSelector for plans removal.  Possible defaults: WorstPlanSelector SelectRandom SelectExpBetaForRemoval ChangeExpBetaForRemoval PathSizeLogitSelectorForRemoval . The current default, WorstPlanSelector is not a good choice from a discrete choice theoretical perspective. Alternatives, however, have not been systematically tested. kai, feb'12 -->
		<param name="planSelectorForRemoval" value="WorstPlanSelector" />
		<parameterset type="strategysettings" >
			<!-- iteration after which strategy will be disabled.  most useful for ``innovative'' strategies (new routes, new times, ...). Normally, better use fractionOfIterationsToDisableInnovation -->
			<param name="disableAfterIteration" value="-1" />
			<!-- path to external executable (if applicable) -->
			<param name="executionPath" value="null" />
			<!-- strategyName of strategy.  Possible default names: SelectRandomBestScoreKeepLastSelectedChangeExpBetaSelectExpBetaSelectPathSizeLogit (selectors), ReRouteTimeAllocationMutatorTimeAllocationMutator_ReRouteChangeSingleTripModeChangeTripModeSubtourModeChoice (innovative strategies). -->
			<param name="strategyName" value="SelectExpBeta" />
			<!-- subpopulation to which the strategy applies. "null" refers to the default population, that is, the set of persons for which no explicit subpopulation is defined (ie no subpopulation attribute) -->
			<param name="subpopulation" value="null" />
			<!-- weight of a strategy: for each agent, a strategy will be selected with a probability proportional to its weight -->
			<param name="weight" value="0.0" />
		</parameterset>
		<parameterset type="strategysettings" >
			<!-- iteration after which strategy will be disabled.  most useful for ``innovative'' strategies (new routes, new times, ...). Normally, better use fractionOfIterationsToDisableInnovation -->
			<param name="disableAfterIteration" value="1000" />
			<!-- path to external executable (if applicable) -->
			<param name="executionPath" value="null" />
			<!-- strategyName of strategy.  Possible default names: SelectRandomBestScoreKeepLastSelectedChangeExpBetaSelectExpBetaSelectPathSizeLogit (selectors), ReRouteTimeAllocationMutatorTimeAllocationMutator_ReRouteChangeSingleTripModeChangeTripModeSubtourModeChoice (innovative strategies). -->
			<param name="strategyName" value="RandomTripToCarsharingStrategy" />
			<!-- subpopulation to which the strategy applies. "null" refers to the default population, that is, the set of persons for which no explicit subpopulation is defined (ie no subpopulation attribute) -->
			<param name="subpopulation" value="null" />
			<!-- weight of a strategy: for each agent, a strategy will be selected with a probability proportional to its weight -->
			<param name="weight" value="0.5" />
		</parameterset>
		<parameterset type="strategysettings" >
			<!-- iteration after which strategy will be disabled.  most useful for ``innovative'' strategies (new routes, new times, ...). Normally, better use fractionOfIterationsToDisableInnovation -->
			<param name="disableAfterIteration" value="1000" />
			<!-- path to external executable (if applicable) -->
			<param name="executionPath" value="null" />
			<!-- strategyName of strategy.  Possible default names: SelectRandomBestScoreKeepLastSelectedChangeExpBetaSelectExpBetaSelectPathSizeLogit (selectors), ReRouteTimeAllocationMutatorTimeAllocationMutator_ReRouteChangeSingleTripModeChangeTripModeSubtourModeChoice (innovative strategies). -->
			<param name="strategyName" value="CarsharingSubtourModeChoiceStrategy" />
			<!-- subpopulation to which the strategy applies. "null" refers to the default population, that is, the set of persons for which no explicit subpopulation is defined (ie no subpopulation attribute) -->
			<param name="subpopulation" value="null" />
			<!-- weight of a strategy: for each agent, a strategy will be selected with a probability proportional to its weight -->
			<param name="weight" value="1.0" />
		</parameterset>
		<parameterset type="strategysettings" >
			<!-- iteration after which strategy will be disabled.  most useful for ``innovative'' strategies (new routes, new times, ...). Normally, better use fractionOfIterationsToDisableInnovation -->
			<param name="disableAfterIteration" value="1000" />
			<!-- path to external executable (if applicable) -->
			<param name="executionPath" value="null" />
			<!-- strategyName of strategy.  Possible default names: SelectRandomBestScoreKeepLastSelectedChangeExpBetaSelectExpBetaSelectPathSizeLogit (selectors), ReRouteTimeAllocationMutatorTimeAllocationMutator_ReRouteChangeSingleTripModeChangeTripModeSubtourModeChoice (innovative strategies). -->
			<param name="strategyName" value="SubtourModeChoice" />
			<!-- subpopulation to which the strategy applies. "null" refers to the default population, that is, the set of persons for which no explicit subpopulation is defined (ie no subpopulation attribute) -->
			<param name="subpopulation" value="null" />
			<!-- weight of a strategy: for each agent, a strategy will be selected with a probability proportional to its weight -->
			<param name="weight" value="1.0" />
		</parameterset>
	</module>
	<module name="subtourModeChoice" >
		<!-- Only for backwards compatibility.  Defines if only trips from modes list should change mode, or all trips.  Options: fromAllModesToSpecifiedModes fromSpecifiedModesToSpecifiedModes  -->
		<param name="behavior" value="fromAllModesToSpecifiedModes" />
		<!-- Defines the chain-based modes, seperated by commas -->
		<param name="chainBasedModes" value="car" />
		<!-- Defines whether car availability must be considered or not. A agent has no car only if it has no license, or never access to a car -->
		<param name="considerCarAvailability" value="true" />
		<!-- Defines all the modes available, including chain-based modes, seperated by commas -->
		<param name="modes" value="car,pt" />
	</module>
	<module name="transit" >
		<!-- The Coordinates Reference System in which the coordinates are expressed in the input file. At import, the coordinates will be converted to the coordinate system defined in "global", and willbe converted back at export. If not specified, no conversion happens. -->
		<param name="inputScheduleCRS" value="null" />
		<!-- Optional input file containing additional attributes for transit lines, stored as ObjectAttributes. -->
		<param name="transitLinesAttributesFile" value="null" />
		<!-- Comma-separated list of transportation modes that are handled as transit. Defaults to 'pt'. -->
		<param name="transitModes" value="pt" />
		<!-- Input file containing the transit schedule to be simulated. -->
		<param name="transitScheduleFile" value="null" />
		<!-- Optional input file containing additional attributes for transit stop facilities, stored as ObjectAttributes. -->
		<param name="transitStopsAttributesFile" value="null" />
		<!-- Set this parameter to true if transit should be simulated, false if not. -->
		<param name="useTransit" value="false" />
		<!-- Input file containing the vehicles used by the departures in the transit schedule. -->
		<param name="vehiclesFile" value="null" />
	</module>
	<module name="transitRouter" >
		<!-- additional time the router allocates when a line switch happens. Can be interpreted as a 'safety' time that agents need to safely transfer from one line to another -->
		<param name="additionalTransferTime" value="0.0" />
		<!-- Factor with which direct walk generalized cost is multiplied before it is compared to the pt generalized cost.  Set to a very high value to reduce direct walk results. -->
		<param name="directWalkFactor" value="1.0" />
		<!-- step size to increase searchRadius if no stops are found -->
		<param name="extensionRadius" value="200.0" />
		<!-- maximum beeline distance between stops that agents could transfer to by walking -->
		<param name="maxBeelineWalkConnectionDistance" value="100.0" />
		<!-- the radius in which stop locations are searched, given a start or target coordinate -->
		<param name="searchRadius" value="1000.0" />
	</module>
	<module name="travelTimeCalculator" >
		<!-- Transport modes that will be respected by the travel time collector. 'car' is default, which includes also busses from the pt simulation module. Use this parameter in combination with 'filterModes' = true! -->
		<param name="analyzedModes" value="car" />
		<param name="calculateLinkToLinkTravelTimes" value="false" />
		<param name="calculateLinkTravelTimes" value="true" />
		<!-- If true, link travel times from legs performed on modes not included in the 'analyzedModes' parameter are ignored. -->
		<param name="filterModes" value="false" />
		<!-- The lenght (in sec) of the time period that is splited into time bins; an additional time bin is created to aggregate all travel times collected after maxTime -->
		<param name="maxTime" value="108000" />
		<!-- If true, link travel times are measured and calculated separately for each mode in analyzedModes. Other modes are ignored. If true, filterModes has no effect. -->
		<param name="separateModes" value="false" />
		<!-- How to deal with congested time bins that have no link entry events. `optimistic' assumes free speed (too optimistic); 'experimental_LastMile' is experimental and probably too pessimistic. -->
		<param name="travelTimeAggregator" value="optimistic" />
		<!-- The size of the time bin (in sec) into which the link travel times are aggregated for the router -->
		<param name="travelTimeBinSize" value="900" />
		<!-- possible values: TravelTimeCalculatorArray TravelTimeCalculatorHashMap  -->
		<param name="travelTimeCalculator" value="TravelTimeCalculatorArray" />
		<!-- How to deal with link entry times at different positions during the time bin. Currently supported: average, linearinterpolation -->
		<param name="travelTimeGetter" value="average" />
	</module>
	<module name="vehicles" >
		<param name="vehiclesFile" value="null" />
	</module>
	<module name="vspExperimental" >
		<!-- (do not use except of you have to) There was a problem with pt interaction scoring.  Some people solved it by overwriting the parameters of the pt interaction activity type.  Doing this now throws an Exception.  If you still insist on doing this, set the following to true. -->
		<param name="isAbleToOverwritePtInteractionParams" value="false" />
		<param name="isGeneratingBoardingDeniedEvent" value="false" />
		<!-- if an approximation of the opportunity cost of time is included into the radius calculation for location choice.`true' will be faster, but it is an approximation.  Default is `true'; `false' is available for backwards compatibility. -->
		<param name="isUsingOpportunityCostOfTimeForLocationChoice" value="true" />
		<param name="logitScaleParamForPlansRemoval" value="1.0" />
		<!-- Options: | ignore | info | warn | abort | .  When violating VSP defaults, this results in nothing, logfile infos, logfile warnings, or aborts.  Members of VSP should use `abort' or talk to kai. -->
		<param name="vspDefaultsCheckingLevel" value="ignore" />
		<!-- if true then writes output_events in output directory.  default is `false'. Will only work when lastIteration is multiple of events writing interval -->
		<param name="writingOutputEvents" value="true" />
	</module>

</config>

2018-07-18 12:49:44,146  INFO ControlerUtils:63 Complete config dump done.
2018-07-18 12:49:44,147  INFO ControlerUtils:64 Checking consistency of config...
2018-07-18 12:49:44,147  WARN ControlerConfigGroup:365 setting overwriting behavior to overwriteExistingFiles
2018-07-18 12:49:44,147  WARN ControlerConfigGroup:366 this is not recommended, as it might result in a directory containing output from several model runs
2018-07-18 12:49:44,148  WARN ControlerConfigGroup:367 prefer the options deleteDirectoryIfExists or failIfDirectoryExists
2018-07-18 12:49:44,148  INFO VspConfigConsistencyCheckerImpl:58 NOT running vsp config consistency check because vsp defaults checking level is set to IGNORE
2018-07-18 12:49:44,149  INFO ControlerUtils:66 Checking consistency of config done.
2018-07-18 12:49:44,173 DEBUG NetworkRoutingProvider:75 requesting network routing module with routingMode=car;	mode=car
2018-07-18 12:49:44,188 DEBUG NetworkRoutingProvider:75 requesting network routing module with routingMode=car;	mode=car
2018-07-18 12:49:44,197 DEBUG NetworkRoutingProvider:75 requesting network routing module with routingMode=car;	mode=car
2018-07-18 12:49:44,202 DEBUG NetworkRoutingProvider:75 requesting network routing module with routingMode=car;	mode=car
2018-07-18 12:49:44,214  INFO Counter:70 [PersonPrepareForSim] handled person # 1
2018-07-18 12:49:44,215  INFO Counter:70 [PersonPrepareForSim] handled person # 16
2018-07-18 12:49:44,216  INFO Counter:70 [PersonPrepareForSim] handled person # 32
2018-07-18 12:49:44,216  INFO Counter:70 [PersonPrepareForSim] handled person # 64
2018-07-18 12:49:44,217  INFO Counter:70 [PersonPrepareForSim] handled person # 128
2018-07-18 12:49:44,218  INFO Counter:70 [PersonPrepareForSim] handled person # 256
2018-07-18 12:49:44,215  INFO Counter:70 [PersonPrepareForSim] handled person # 8
2018-07-18 12:49:44,220  INFO Counter:70 [PersonPrepareForSim] handled person # 512
2018-07-18 12:49:44,215  INFO Counter:70 [PersonPrepareForSim] handled person # 2
2018-07-18 12:49:44,222  INFO Counter:70 [PersonPrepareForSim] handled person # 1024
2018-07-18 12:49:44,224  INFO Counter:70 [PersonPrepareForSim] handled person # 2048
2018-07-18 12:49:44,215  INFO Counter:70 [PersonPrepareForSim] handled person # 4
2018-07-18 12:49:44,228  INFO Counter:70 [PersonPrepareForSim] handled person # 4096
2018-07-18 12:49:44,236  INFO Counter:76 [PersonPrepareForSim] handled person # 6973
2018-07-18 12:49:44,237  INFO Counter:70  vehicles # 1
2018-07-18 12:49:44,237  INFO Counter:70  vehicles # 2
2018-07-18 12:49:44,238  INFO Counter:70  vehicles # 4
2018-07-18 12:49:44,238  INFO Counter:70  vehicles # 8
2018-07-18 12:49:44,239  INFO Counter:70  vehicles # 16
2018-07-18 12:49:44,239  INFO Counter:70  vehicles # 32
2018-07-18 12:49:44,240  INFO Counter:70  vehicles # 64
2018-07-18 12:49:44,243  INFO Counter:70  vehicles # 128
2018-07-18 12:49:44,245  INFO Counter:70  vehicles # 256
2018-07-18 12:49:44,248  INFO Counter:70  vehicles # 512
2018-07-18 12:49:44,254  INFO Counter:70  vehicles # 1024
2018-07-18 12:49:44,261  INFO Counter:70  vehicles # 2048
2018-07-18 12:49:44,274  INFO Counter:70  vehicles # 4096
2018-07-18 12:49:44,300  INFO AbstractController:121 ###################################################
2018-07-18 12:49:44,301  INFO AbstractController:122 ### ITERATION 0 BEGINS
2018-07-18 12:49:44,302  INFO ControlerListenerManagerImpl:145 calling notifyIterationStarts on org.matsim.analysis.LegHistogramListener
2018-07-18 12:49:44,302  INFO ControlerListenerManagerImpl:145 calling notifyIterationStarts on org.matsim.analysis.LinkStatsControlerListener
2018-07-18 12:49:44,302  INFO ControlerListenerManagerImpl:145 calling notifyIterationStarts on org.matsim.contrib.carsharing.manager.CarsharingManagerNew
2018-07-18 12:49:44,322  INFO MatsimXmlParser:147 starting to parse xml from file test/input/org/matsim/contrib/carsharing/runExample/RunCarsharingIT//CarsharingStations.xml ...
2018-07-18 12:49:44,326  INFO MatsimXmlParser:270 Trying to load file:///C:/Users/MobiLab/Downloads/CS%2028-06/CS%2028-06/carsharing%2028-06/src/main/resources/dtd/CarsharingStations.dtd. In some cases (e.g. network interface up but no connection), this may take a bit.
2018-07-18 12:49:44,341  INFO ControlerListenerManagerImpl:145 calling notifyIterationStarts on org.matsim.core.replanning.ReplanningContextImpl
2018-07-18 12:49:44,342  INFO ControlerListenerManagerImpl:145 calling notifyIterationStarts on org.matsim.core.scoring.ExperiencedPlansServiceImpl$1
2018-07-18 12:49:44,345  INFO ControlerListenerManagerImpl:145 calling notifyIterationStarts on org.matsim.core.scoring.ScoringFunctionsForPopulation$1
2018-07-18 12:49:44,400  INFO ControlerListenerManagerImpl:148 [it.0] all ControlerIterationStartsListeners called.
2018-07-18 12:49:44,402  INFO ControlerListenerManagerImpl:224 calling notifyBeforeMobsim on org.matsim.core.controler.corelisteners.EventsHandlingImpl
2018-07-18 12:49:44,402  INFO EventsManagerImpl:170 resetting Event-Handlers
2018-07-18 12:49:44,402  INFO EventsManagerImpl:177   org.matsim.analysis.LegHistogram
2018-07-18 12:49:44,402  INFO EventsManagerImpl:177   org.matsim.core.scoring.EventsToLegs
2018-07-18 12:49:44,403  INFO EventsManagerImpl:177   org.matsim.analysis.LegHistogram
2018-07-18 12:49:44,403  INFO EventsManagerImpl:177   org.matsim.analysis.CalcLegTimes
2018-07-18 12:49:44,403  INFO EventsManagerImpl:177   org.matsim.contrib.carsharing.events.handlers.PersonArrivalDepartureHandler
2018-07-18 12:49:44,403  INFO EventsManagerImpl:177   org.matsim.core.trafficmonitoring.TravelTimeCalculator
2018-07-18 12:49:44,405  INFO EventsManagerImpl:177   org.matsim.analysis.VolumesAnalyzer
2018-07-18 12:49:44,405  INFO EventsManagerImpl:177   org.matsim.contrib.carsharing.manager.demand.DemandHandler
2018-07-18 12:49:44,405  INFO EventsManagerImpl:177   org.matsim.core.events.algorithms.Vehicle2DriverEventHandler
2018-07-18 12:49:44,406  INFO EventsManagerImpl:177   org.matsim.core.scoring.EventsToActivities
2018-07-18 12:49:44,406  INFO EventsManagerImpl:177   org.matsim.core.scoring.ScoringFunctionsForPopulation
2018-07-18 12:49:44,409  INFO EventsManagerImpl:144 adding Event-Handler: org.matsim.core.events.algorithms.EventWriterXML
2018-07-18 12:49:44,409  INFO EventsManagerImpl:148   org.matsim.core.events.algorithms.EventWriter
2018-07-18 12:49:44,409  INFO EventsManagerImpl:148   org.matsim.core.events.handler.BasicEventHandler
2018-07-18 12:49:44,409  INFO EventsManagerImpl:207     > org.matsim.api.core.v01.events.Event
2018-07-18 12:49:44,410  INFO EventsManagerImpl:156 
2018-07-18 12:49:44,410  INFO EventsManagerImpl:144 adding Event-Handler: org.matsim.core.events.algorithms.EventWriterXML
2018-07-18 12:49:44,410  INFO EventsManagerImpl:148   org.matsim.core.events.algorithms.EventWriter
2018-07-18 12:49:44,410  INFO EventsManagerImpl:148   org.matsim.core.events.handler.BasicEventHandler
2018-07-18 12:49:44,410  INFO EventsManagerImpl:207     > org.matsim.api.core.v01.events.Event
2018-07-18 12:49:44,410  INFO EventsManagerImpl:156 
2018-07-18 12:49:44,410  INFO ControlerListenerManagerImpl:224 calling notifyBeforeMobsim on org.matsim.core.controler.corelisteners.PlansDumpingImpl
2018-07-18 12:49:44,411  INFO PlansDumpingImpl:76 dumping plans...
2018-07-18 12:49:44,431  INFO Counter:70 [PopulationWriter] dumped person # 1
2018-07-18 12:49:44,431  INFO Counter:70 [PopulationWriter] dumped person # 2
2018-07-18 12:49:44,432  INFO Counter:70 [PopulationWriter] dumped person # 4
2018-07-18 12:49:44,433  INFO Counter:70 [PopulationWriter] dumped person # 8
2018-07-18 12:49:44,436  INFO Counter:70 [PopulationWriter] dumped person # 16
2018-07-18 12:49:44,441  INFO Counter:70 [PopulationWriter] dumped person # 32
2018-07-18 12:49:44,450  INFO Counter:70 [PopulationWriter] dumped person # 64
2018-07-18 12:49:44,465  INFO Counter:70 [PopulationWriter] dumped person # 128
2018-07-18 12:49:44,483  INFO Counter:70 [PopulationWriter] dumped person # 256
2018-07-18 12:49:44,511  INFO Counter:70 [PopulationWriter] dumped person # 512
2018-07-18 12:49:44,574  INFO Counter:70 [PopulationWriter] dumped person # 1024
2018-07-18 12:49:44,680  INFO Counter:70 [PopulationWriter] dumped person # 2048
2018-07-18 12:49:44,921  INFO Counter:70 [PopulationWriter] dumped person # 4096
2018-07-18 12:49:45,238  INFO PopulationWriter:139 Population written to: test/output/org/matsim/contrib/carsharing/runExample/RunCarsharingIT/test/ITERS/it.0/run1.0.plans.xml.gz
2018-07-18 12:49:45,245  INFO Counter:76 [PopulationWriter] dumped person # 6973
2018-07-18 12:49:45,245  INFO PlansDumpingImpl:93 finished plans dump.
2018-07-18 12:49:45,245  INFO ControlerListenerManagerImpl:229 calling notifyBeforeMobsim on org.matsim.core.population.VspPlansCleaner
2018-07-18 12:49:45,268  INFO ControlerListenerManagerImpl:232 [it.0] all ControlerBeforeMobsimListeners called.
2018-07-18 12:49:45,506  INFO QNetsimEngine:507 Assigned 11345 nodes and 24335 links to QSimEngineRunner #0
2018-07-18 12:49:45,523  INFO EventsManagerImpl:134  event # 1
2018-07-18 12:49:45,526  INFO QNetsimEngine:347 SIMULATION (QNetsimEngine) AT 03:08:00 : #links=0 #nodes=1
2018-07-18 12:49:45,527  INFO QSim:506 SIMULATION (NEW QSim) AT 03:08:00 : #Veh=6493 lost=0 simT=0.0s realT=0s; (s/r): 0.0
2018-07-18 12:49:45,527  INFO Gbl:54 used RAM: 816731672B = 797589kB = 778MB  free: 1779018216B = 1696MB  total: 2595749888B = 2475MB
2018-07-18 12:49:45,527  INFO EventsManagerImpl:134  event # 4
2018-07-18 12:49:45,576  INFO EventsManagerImpl:134  event # 16
2018-07-18 12:49:45,627  INFO EventsManagerImpl:134  event # 64
2018-07-18 12:49:45,672  INFO QNetsimEngine:347 SIMULATION (QNetsimEngine) AT 04:00:00 : #links=8 #nodes=1
2018-07-18 12:49:45,672  INFO QSim:506 SIMULATION (NEW QSim) AT 04:00:00 : #Veh=6493 lost=0 simT=3120.0s realT=0s; (s/r): Infinity
2018-07-18 12:49:45,672  INFO Gbl:54 used RAM: 837781936B = 818146kB = 798MB  free: 1757967952B = 1676MB  total: 2595749888B = 2475MB
2018-07-18 12:49:45,692  INFO EventsManagerImpl:134  event # 256
2018-07-18 12:49:45,823  INFO EventsManagerImpl:134  event # 1024
2018-07-18 12:49:45,865  INFO QNetsimEngine:347 SIMULATION (QNetsimEngine) AT 05:00:00 : #links=28 #nodes=2
2018-07-18 12:49:45,865  INFO QSim:506 SIMULATION (NEW QSim) AT 05:00:00 : #Veh=6493 lost=0 simT=6720.0s realT=0s; (s/r): Infinity
2018-07-18 12:49:45,865  INFO Gbl:54 used RAM: 837781936B = 818146kB = 798MB  free: 1757967952B = 1676MB  total: 2595749888B = 2475MB
2018-07-18 12:49:45,999  INFO EventsManagerImpl:134  event # 4096
2018-07-18 12:49:46,171  INFO QNetsimEngine:347 SIMULATION (QNetsimEngine) AT 06:00:00 : #links=124 #nodes=16
2018-07-18 12:49:46,172  INFO QSim:506 SIMULATION (NEW QSim) AT 06:00:00 : #Veh=6493 lost=0 simT=10320.0s realT=0s; (s/r): Infinity
2018-07-18 12:49:46,172  INFO Gbl:54 used RAM: 844947200B = 825143kB = 805MB  free: 1750802688B = 1669MB  total: 2595749888B = 2475MB
2018-07-18 12:49:46,321  INFO EventsManagerImpl:134  event # 16384
2018-07-18 12:49:46,717  INFO QNetsimEngine:347 SIMULATION (QNetsimEngine) AT 07:00:00 : #links=234 #nodes=16
2018-07-18 12:49:46,717  INFO QSim:506 SIMULATION (NEW QSim) AT 07:00:00 : #Veh=6464 lost=0 simT=13920.0s realT=1s; (s/r): 13920.0
2018-07-18 12:49:46,717  INFO Gbl:54 used RAM: 873608336B = 853133kB = 833MB  free: 1722141552B = 1642MB  total: 2595749888B = 2475MB
2018-07-18 12:49:47,191  INFO EventsManagerImpl:134  event # 65536
2018-07-18 12:49:47,226  INFO QNetsimEngine:347 SIMULATION (QNetsimEngine) AT 08:00:00 : #links=248 #nodes=21
2018-07-18 12:49:47,226  INFO QSim:506 SIMULATION (NEW QSim) AT 08:00:00 : #Veh=6374 lost=0 simT=17520.0s realT=1s; (s/r): 17520.0
2018-07-18 12:49:47,226  INFO Gbl:54 used RAM: 902269576B = 881122kB = 860MB  free: 1693480312B = 1615MB  total: 2595749888B = 2475MB
2018-07-18 12:49:47,629  INFO QNetsimEngine:347 SIMULATION (QNetsimEngine) AT 09:00:00 : #links=251 #nodes=17
2018-07-18 12:49:47,630  INFO QSim:506 SIMULATION (NEW QSim) AT 09:00:00 : #Veh=6214 lost=0 simT=21120.0s realT=2s; (s/r): 10560.0
2018-07-18 12:49:47,630  INFO Gbl:54 used RAM: 923765528B = 902114kB = 880MB  free: 1671984360B = 1594MB  total: 2595749888B = 2475MB
2018-07-18 12:49:48,021  INFO QNetsimEngine:347 SIMULATION (QNetsimEngine) AT 10:00:00 : #links=266 #nodes=19
2018-07-18 12:49:48,021  INFO QSim:506 SIMULATION (NEW QSim) AT 10:00:00 : #Veh=6012 lost=0 simT=24720.0s realT=2s; (s/r): 12360.0
2018-07-18 12:49:48,021  INFO Gbl:54 used RAM: 952427752B = 930105kB = 908MB  free: 1643322136B = 1567MB  total: 2595749888B = 2475MB
2018-07-18 12:49:48,391  INFO QNetsimEngine:347 SIMULATION (QNetsimEngine) AT 11:00:00 : #links=274 #nodes=26
2018-07-18 12:49:48,391  INFO QSim:506 SIMULATION (NEW QSim) AT 11:00:00 : #Veh=5735 lost=0 simT=28320.0s realT=3s; (s/r): 9440.0
2018-07-18 12:49:48,392  INFO Gbl:54 used RAM: 1002139200B = 978651kB = 955MB  free: 1593610688B = 1519MB  total: 2595749888B = 2475MB
2018-07-18 12:49:48,739  INFO QNetsimEngine:347 SIMULATION (QNetsimEngine) AT 12:00:00 : #links=272 #nodes=10
2018-07-18 12:49:48,740  INFO QSim:506 SIMULATION (NEW QSim) AT 12:00:00 : #Veh=5465 lost=0 simT=31920.0s realT=3s; (s/r): 10640.0
2018-07-18 12:49:48,740  INFO Gbl:54 used RAM: 1023635120B = 999643kB = 976MB  free: 1572114768B = 1499MB  total: 2595749888B = 2475MB
2018-07-18 12:49:49,098  INFO QNetsimEngine:347 SIMULATION (QNetsimEngine) AT 13:00:00 : #links=280 #nodes=46
2018-07-18 12:49:49,099  INFO QSim:506 SIMULATION (NEW QSim) AT 13:00:00 : #Veh=5200 lost=0 simT=35520.0s realT=3s; (s/r): 11840.0
2018-07-18 12:49:49,099  INFO Gbl:54 used RAM: 1045131048B = 1020635kB = 996MB  free: 1550618840B = 1478MB  total: 2595749888B = 2475MB
2018-07-18 12:49:49,362  INFO EventsManagerImpl:134  event # 262144
2018-07-18 12:49:49,475  INFO QNetsimEngine:347 SIMULATION (QNetsimEngine) AT 14:00:00 : #links=310 #nodes=10
2018-07-18 12:49:49,475  INFO QSim:506 SIMULATION (NEW QSim) AT 14:00:00 : #Veh=4868 lost=0 simT=39120.0s realT=4s; (s/r): 9780.0
2018-07-18 12:49:49,475  INFO Gbl:54 used RAM: 1073792328B = 1048625kB = 1024MB  free: 1521957560B = 1451MB  total: 2595749888B = 2475MB
2018-07-18 12:49:49,836  INFO QNetsimEngine:347 SIMULATION (QNetsimEngine) AT 15:00:00 : #links=279 #nodes=11
2018-07-18 12:49:49,836  INFO QSim:506 SIMULATION (NEW QSim) AT 15:00:00 : #Veh=4510 lost=0 simT=42720.0s realT=4s; (s/r): 10680.0
[...]
2018-07-18 12:50:11,790  INFO QNetsimEngine:347 SIMULATION (QNetsimEngine) AT 23:00:00 : #links=50 #nodes=1
2018-07-18 12:50:11,790  INFO QSim:506 SIMULATION (NEW QSim) AT 23:00:00 : #Veh=404 lost=2284 simT=71520.0s realT=5s; (s/r): 14304.0
2018-07-18 12:50:11,791  INFO Gbl:54 used RAM: 887999448B = 867186kB = 846MB  free: 2507289640B = 2391MB  total: 3395289088B = 3238MB
2018-07-18 12:50:11,932  INFO QNetsimEngine:347 SIMULATION (QNetsimEngine) AT 24:00:00 : #links=41 #nodes=1
2018-07-18 12:50:11,932  INFO QSim:506 SIMULATION (NEW QSim) AT 24:00:00 : #Veh=237 lost=2285 simT=75120.0s realT=5s; (s/r): 15024.0
2018-07-18 12:50:11,933  INFO Gbl:54 used RAM: 896018976B = 875018kB = 854MB  free: 2499270112B = 2383MB  total: 3395289088B = 3238MB
2018-07-18 12:50:12,048  INFO QNetsimEngine:347 SIMULATION (QNetsimEngine) AT 25:00:00 : #links=26 #nodes=1
2018-07-18 12:50:12,048  INFO QSim:506 SIMULATION (NEW QSim) AT 25:00:00 : #Veh=132 lost=2285 simT=78720.0s realT=6s; (s/r): 13120.0
2018-07-18 12:50:12,048  INFO Gbl:54 used RAM: 896018976B = 875018kB = 854MB  free: 2499270112B = 2383MB  total: 3395289088B = 3238MB
2018-07-18 12:50:12,153  INFO QNetsimEngine:347 SIMULATION (QNetsimEngine) AT 26:00:00 : #links=11 #nodes=0
2018-07-18 12:50:12,153  INFO QSim:506 SIMULATION (NEW QSim) AT 26:00:00 : #Veh=78 lost=2285 simT=82320.0s realT=6s; (s/r): 13720.0
2018-07-18 12:50:12,153  INFO Gbl:54 used RAM: 910661352B = 889317kB = 868MB  free: 2484627736B = 2369MB  total: 3395289088B = 3238MB
2018-07-18 12:50:12,252  INFO QNetsimEngine:347 SIMULATION (QNetsimEngine) AT 27:00:00 : #links=6 #nodes=0
2018-07-18 12:50:12,252  INFO QSim:506 SIMULATION (NEW QSim) AT 27:00:00 : #Veh=38 lost=2286 simT=85920.0s realT=6s; (s/r): 14320.0
2018-07-18 12:50:12,252  INFO Gbl:54 used RAM: 910661352B = 889317kB = 868MB  free: 2484627736B = 2369MB  total: 3395289088B = 3238MB
2018-07-18 12:50:12,347  INFO QNetsimEngine:347 SIMULATION (QNetsimEngine) AT 28:00:00 : #links=5 #nodes=0
2018-07-18 12:50:12,348  INFO QSim:506 SIMULATION (NEW QSim) AT 28:00:00 : #Veh=21 lost=2286 simT=89520.0s realT=6s; (s/r): 14920.0
2018-07-18 12:50:12,348  INFO Gbl:54 used RAM: 910661352B = 889317kB = 868MB  free: 2484627736B = 2369MB  total: 3395289088B = 3238MB
2018-07-18 12:50:12,441  INFO QNetsimEngine:347 SIMULATION (QNetsimEngine) AT 29:00:00 : #links=1 #nodes=0
2018-07-18 12:50:12,441  INFO QSim:506 SIMULATION (NEW QSim) AT 29:00:00 : #Veh=8 lost=2286 simT=93120.0s realT=6s; (s/r): 15520.0
2018-07-18 12:50:12,441  INFO Gbl:54 used RAM: 910661352B = 889317kB = 868MB  free: 2484627736B = 2369MB  total: 3395289088B = 3238MB
2018-07-18 12:50:12,534  INFO QNetsimEngine:347 SIMULATION (QNetsimEngine) AT 30:00:00 : #links=0 #nodes=0
2018-07-18 12:50:12,534  INFO QSim:506 SIMULATION (NEW QSim) AT 30:00:00 : #Veh=6 lost=2286 simT=96720.0s realT=6s; (s/r): 16120.0
2018-07-18 12:50:12,535  INFO Gbl:54 used RAM: 917302536B = 895803kB = 874MB  free: 2477986552B = 2363MB  total: 3395289088B = 3238MB
2018-07-18 12:50:12,623  INFO QNetsimEngine:347 SIMULATION (QNetsimEngine) AT 31:00:00 : #links=0 #nodes=0
2018-07-18 12:50:12,624  INFO QSim:506 SIMULATION (NEW QSim) AT 31:00:00 : #Veh=3 lost=2286 simT=100320.0s realT=6s; (s/r): 16720.0
2018-07-18 12:50:12,624  INFO Gbl:54 used RAM: 917302536B = 895803kB = 874MB  free: 2477986552B = 2363MB  total: 3395289088B = 3238MB
2018-07-18 12:50:12,706  INFO Gbl:187 Thread performance: Thread=class org.matsim.core.events.SimStepParallelEventsManagerImpl$ProcessEventsRunnable0  cpu-time=3.703125sec
2018-07-18 12:50:12,706  INFO AbstractController$6:210 ### ITERATION 1 fires after mobsim event
2018-07-18 12:50:12,706  INFO ControlerListenerManagerImpl:248 calling notifyAfterMobsim on org.matsim.analysis.LegTimesControlerListener
2018-07-18 12:50:12,711  INFO LegTimesControlerListener:50 [1] average trip (probably: leg) duration is: 1938 seconds = 00:32:18
2018-07-18 12:50:12,711  INFO ControlerListenerManagerImpl:248 calling notifyAfterMobsim on org.matsim.contrib.carsharing.runExample.RunCarsharingIT$MyAnalysis
2018-07-18 12:50:12,712  INFO RunCarsharingIT$MyAnalysis:226 number of legs:	33349	100%
2018-07-18 12:50:12,712  INFO ControlerListenerManagerImpl:248 calling notifyAfterMobsim on org.matsim.core.scoring.EventsToActivities$1
2018-07-18 12:50:12,712  WARN CharyparNagelActivityScoring:252 The first and the last activity do not have the same type. 
2018-07-18 12:50:12,712  WARN CharyparNagelActivityScoring:253 Will score the first activity from midnight to its end, and the last activity from its start to midnight.
2018-07-18 12:50:12,714  WARN CharyparNagelActivityScoring:254 Because of the nonlinear function, this is not the same as scoring from start to end.
2018-07-18 12:50:12,714  WARN CharyparNagelActivityScoring:255 first activity: [type=h][coord=null][linkId=251353329_254510519][startTime=undefined][endTime=07:19:00][duration=undefined][facilityId=null]
2018-07-18 12:50:12,714  WARN CharyparNagelActivityScoring:256 last activity: [type=w][coord=null][linkId=122569285_52366388][startTime=08:59:17][endTime=undefined][duration=undefined][facilityId=null]
2018-07-18 12:50:12,714  WARN CharyparNagelActivityScoring:257 This may also happen when plans are not completed when the simulation ends.
2018-07-18 12:50:12,714  WARN CharyparNagelActivityScoring:259 Additional warnings of this type are suppressed.
2018-07-18 12:50:12,724  INFO ControlerListenerManagerImpl:251 [it.1] all ControlerAfterMobsimListeners called.
2018-07-18 12:50:12,724  INFO AbstractController$4:147 ### ITERATION 1 fires scoring event
2018-07-18 12:50:12,724  INFO ControlerListenerManagerImpl:183 calling notifyScoring on org.matsim.core.scoring.PlansScoringImpl
2018-07-18 12:50:12,734  INFO NewScoreAssignerImpl:36 it: 1 msaStart: null
2018-07-18 12:50:12,741  INFO ControlerListenerManagerImpl:194 [it.1] all ControlerScoringListeners called.
2018-07-18 12:50:12,742  INFO AbstractController$5:155 ### ITERATION 1 fires iteration end event
2018-07-18 12:50:12,742  INFO ControlerListenerManagerImpl:160 calling notifyIterationEnds on org.matsim.core.controler.corelisteners.EventsHandlingImpl
2018-07-18 12:50:12,748  INFO EventsManagerImpl:161 removing Event-Handler: org.matsim.core.events.algorithms.EventWriterXML
2018-07-18 12:50:12,748  INFO EventsManagerImpl:161 removing Event-Handler: org.matsim.core.events.algorithms.EventWriterXML
2018-07-18 12:50:12,748  INFO ControlerListenerManagerImpl:160 calling notifyIterationEnds on org.matsim.core.scoring.PlansScoringImpl
2018-07-18 12:50:12,754  INFO PopulationImpl:112  person # 1
2018-07-18 12:50:12,754  INFO PopulationImpl:112  person # 4
2018-07-18 12:50:12,754  INFO PopulationImpl:112  person # 16
2018-07-18 12:50:12,754  INFO PopulationImpl:112  person # 64
2018-07-18 12:50:12,755  INFO PopulationImpl:112  person # 256
2018-07-18 12:50:12,755  INFO PopulationImpl:112  person # 1024
2018-07-18 12:50:12,757  INFO PopulationImpl:112  person # 4096
2018-07-18 12:50:12,764  INFO Counter:70 [PopulationWriter] dumped person # 1
2018-07-18 12:50:12,764  INFO Counter:70 [PopulationWriter] dumped person # 2
2018-07-18 12:50:12,764  INFO Counter:70 [PopulationWriter] dumped person # 4
2018-07-18 12:50:12,765  INFO Counter:70 [PopulationWriter] dumped person # 8
2018-07-18 12:50:12,765  INFO Counter:70 [PopulationWriter] dumped person # 16
2018-07-18 12:50:12,767  INFO Counter:70 [PopulationWriter] dumped person # 32
2018-07-18 12:50:12,769  INFO Counter:70 [PopulationWriter] dumped person # 64
2018-07-18 12:50:12,776  INFO Counter:70 [PopulationWriter] dumped person # 128
2018-07-18 12:50:12,788  INFO Counter:70 [PopulationWriter] dumped person # 256
2018-07-18 12:50:12,807  INFO Counter:70 [PopulationWriter] dumped person # 512
2018-07-18 12:50:12,848  INFO Counter:70 [PopulationWriter] dumped person # 1024
2018-07-18 12:50:12,925  INFO Counter:70 [PopulationWriter] dumped person # 2048
2018-07-18 12:50:13,071  INFO Counter:70 [PopulationWriter] dumped person # 4096
2018-07-18 12:50:13,293  INFO PopulationWriter:139 Population written to: test/output/org/matsim/contrib/carsharing/runExample/RunCarsharingIT/test/ITERS/it.1/run1.1.experienced_plans.xml.gz
2018-07-18 12:50:13,298  INFO Counter:76 [PopulationWriter] dumped person # 6973
2018-07-18 12:50:13,452  INFO ControlerListenerManagerImpl:167 calling notifyIterationEnds on org.matsim.counts.CountsControlerListener
2018-07-18 12:50:13,452  INFO ControlerListenerManagerImpl:167 calling notifyIterationEnds on org.matsim.analysis.ModeStatsControlerListener
2018-07-18 12:50:13,544  INFO ModeStatsControlerListener:155 -- mode share of mode access_walk_ff = 0.0
2018-07-18 12:50:13,545  INFO ModeStatsControlerListener:155 -- mode share of mode access_walk_ow = 0.0
2018-07-18 12:50:13,546  INFO ModeStatsControlerListener:155 -- mode share of mode access_walk_tw = 0.0
2018-07-18 12:50:13,546  INFO ModeStatsControlerListener:155 -- mode share of mode bike = 0.07091360359295591
2018-07-18 12:50:13,546  INFO ModeStatsControlerListener:155 -- mode share of mode car = 0.3492888941417484
2018-07-18 12:50:13,547  INFO ModeStatsControlerListener:155 -- mode share of mode egress_walk_ff = 0.0
2018-07-18 12:50:13,547  INFO ModeStatsControlerListener:155 -- mode share of mode egress_walk_ow = 0.0
2018-07-18 12:50:13,547  INFO ModeStatsControlerListener:155 -- mode share of mode egress_walk_tw = 0.0
2018-07-18 12:50:13,548  INFO ModeStatsControlerListener:155 -- mode share of mode freefloating_vehicle = 0.0
2018-07-18 12:50:13,548  INFO ModeStatsControlerListener:155 -- mode share of mode oneway_vehicle = 0.0
2018-07-18 12:50:13,548  INFO ModeStatsControlerListener:155 -- mode share of mode other = 0.0
2018-07-18 12:50:13,548  INFO ModeStatsControlerListener:155 -- mode share of mode pt = 0.2857424260331718
2018-07-18 12:50:13,548  INFO ModeStatsControlerListener:155 -- mode share of mode ride = 0.0
2018-07-18 12:50:13,549  INFO ModeStatsControlerListener:155 -- mode share of mode twoway_vehicle = 0.0
2018-07-18 12:50:13,549  INFO ModeStatsControlerListener:155 -- mode share of mode walk = 0.04042075404798487
2018-07-18 12:50:13,799  INFO ControlerListenerManagerImpl:167 calling notifyIterationEnds on org.matsim.analysis.ScoreStatsControlerListener
2018-07-18 12:50:13,806  INFO ScoreStatsControlerListener:191 -- avg. score of the executed plan of each agent: -221.49754924476352
2018-07-18 12:50:13,806  INFO ScoreStatsControlerListener:192 -- avg. score of the worst plan of each agent: -223.1537177121478
2018-07-18 12:50:13,806  INFO ScoreStatsControlerListener:193 -- avg. of the avg. plan score per agent: -80.38267616378945
2018-07-18 12:50:13,806  INFO ScoreStatsControlerListener:194 -- avg. score of the best plan of each agent: 62.388365384569546
2018-07-18 12:50:14,015  INFO ControlerListenerManagerImpl:167 calling notifyIterationEnds on org.matsim.analysis.TravelDistanceStatsControlerListener
2018-07-18 12:50:14,017  INFO TravelDistanceStats:128 [TravelDistanceStats] using 4 thread(s).
2018-07-18 12:50:14,028  INFO TravelDistanceStats:141 [TravelDistanceStats] all threads finished.
2018-07-18 12:50:14,028  INFO TravelDistanceStats:161 -- average of the average leg distance per plan (executed plans only): 7179.08860600168
2018-07-18 12:50:14,028  INFO TravelDistanceStats:162 (TravelDistanceStats takes an average over all legs where the simulation reports travelled distances. These are car legs, pt legs,
2018-07-18 12:50:14,028  INFO TravelDistanceStats:163 (and teleported legs whose route contains a distance.)
2018-07-18 12:50:14,224  INFO ControlerListenerManagerImpl:167 calling notifyIterationEnds on org.matsim.analysis.LegHistogramListener
2018-07-18 12:50:14,236  INFO LegHistogramListener:72 number of legs:	33349	100%
2018-07-18 12:50:14,236  INFO LegHistogramListener:79 number of access_walk legs:	8057	24.159644966865574%
2018-07-18 12:50:14,236  INFO LegHistogramListener:79 number of bike legs:	1577	4.728777474586944%
2018-07-18 12:50:14,237  INFO LegHistogramListener:79 number of car legs:	8057	24.159644966865574%
2018-07-18 12:50:14,237  INFO LegHistogramListener:79 number of egress_walk legs:	8057	24.159644966865574%
2018-07-18 12:50:14,237  INFO LegHistogramListener:79 number of pt legs:	6701	20.093556028666526%
2018-07-18 12:50:14,237  INFO LegHistogramListener:79 number of walk legs:	900	2.6987315961498095%
2018-07-18 12:50:15,623  INFO ControlerListenerManagerImpl:167 calling notifyIterationEnds on org.matsim.analysis.LinkStatsControlerListener
2018-07-18 12:50:15,624  INFO ControlerListenerManagerImpl:167 calling notifyIterationEnds on org.matsim.contrib.carsharing.control.listeners.CarsharingListener
2018-07-18 12:50:15,904  INFO ControlerListenerManagerImpl:171 [it.1] all ControlerIterationEndsListeners called.
2018-07-18 12:50:16,004  INFO AbstractController:165 ### ITERATION 1 ENDS
2018-07-18 12:50:16,005  INFO AbstractController:166 ###################################################
2018-07-18 12:50:16,005  INFO MatsimRuntimeModifications:58 S H U T D O W N   ---   start shutdown.
2018-07-18 12:50:16,005  INFO ControlerListenerManagerImpl:121 calling notifyShutdown on org.matsim.core.controler.corelisteners.EventsHandlingImpl
2018-07-18 12:50:16,005  INFO ControlerListenerManagerImpl:121 calling notifyShutdown on org.matsim.core.controler.corelisteners.DumpDataAtEndImpl
2018-07-18 12:50:16,010  INFO Counter:70 [PopulationWriter] dumped person # 1
2018-07-18 12:50:16,010  INFO Counter:70 [PopulationWriter] dumped person # 2
2018-07-18 12:50:16,011  INFO Counter:70 [PopulationWriter] dumped person # 4
2018-07-18 12:50:16,012  INFO Counter:70 [PopulationWriter] dumped person # 8
2018-07-18 12:50:16,013  INFO Counter:70 [PopulationWriter] dumped person # 16
2018-07-18 12:50:16,016  INFO Counter:70 [PopulationWriter] dumped person # 32
2018-07-18 12:50:16,023  INFO Counter:70 [PopulationWriter] dumped person # 64
2018-07-18 12:50:16,037  INFO Counter:70 [PopulationWriter] dumped person # 128
2018-07-18 12:50:16,061  INFO Counter:70 [PopulationWriter] dumped person # 256
2018-07-18 12:50:16,114  INFO Counter:70 [PopulationWriter] dumped person # 512
2018-07-18 12:50:16,209  INFO Counter:70 [PopulationWriter] dumped person # 1024
2018-07-18 12:50:16,369  INFO Counter:70 [PopulationWriter] dumped person # 2048
2018-07-18 12:50:16,655  INFO Counter:70 [PopulationWriter] dumped person # 4096
2018-07-18 12:50:17,103  INFO PopulationWriter:139 Population written to: test/output/org/matsim/contrib/carsharing/runExample/RunCarsharingIT/test/run1.output_plans.xml.gz
2018-07-18 12:50:17,107  INFO Counter:76 [PopulationWriter] dumped person # 6973
2018-07-18 12:50:20,897  INFO NetworkWriter:68 Writing network to file: test/output/org/matsim/contrib/carsharing/runExample/RunCarsharingIT/test/run1.output_network.xml.gz...
2018-07-18 12:50:21,328  INFO NetworkWriter:71 done.
2018-07-18 12:50:21,344  INFO Config:563 setting context tofile:/C:/Users/MobiLab/Downloads/CS%2028-06/CS%2028-06/carsharing%2028-06/]
2018-07-18 12:50:21,349  INFO Config:563 setting context tofile:/C:/Users/MobiLab/Downloads/CS%2028-06/CS%2028-06/carsharing%2028-06/]
2018-07-18 12:50:21,352  INFO Config:563 setting context tofile:/C:/Users/MobiLab/Downloads/CS%2028-06/CS%2028-06/carsharing%2028-06/]
2018-07-18 12:50:21,355  INFO Config:563 setting context tofile:/C:/Users/MobiLab/Downloads/CS%2028-06/CS%2028-06/carsharing%2028-06/]
2018-07-18 12:50:21,358  INFO Config:563 setting context tofile:/C:/Users/MobiLab/Downloads/CS%2028-06/CS%2028-06/carsharing%2028-06/]
2018-07-18 12:50:21,360  INFO Config:563 setting context tofile:/C:/Users/MobiLab/Downloads/CS%2028-06/CS%2028-06/carsharing%2028-06/]
2018-07-18 12:50:21,362  INFO Config:563 setting context tofile:/C:/Users/MobiLab/Downloads/CS%2028-06/CS%2028-06/carsharing%2028-06/]
2018-07-18 12:50:21,364  INFO Config:563 setting context tofile:/C:/Users/MobiLab/Downloads/CS%2028-06/CS%2028-06/carsharing%2028-06/]
2018-07-18 12:50:21,369  INFO Config:563 setting context tofile:/C:/Users/MobiLab/Downloads/CS%2028-06/CS%2028-06/carsharing%2028-06/]
2018-07-18 12:50:21,372  INFO Config:563 setting context tofile:/C:/Users/MobiLab/Downloads/CS%2028-06/CS%2028-06/carsharing%2028-06/]
2018-07-18 12:50:21,374  INFO Config:563 setting context tofile:/C:/Users/MobiLab/Downloads/CS%2028-06/CS%2028-06/carsharing%2028-06/]
2018-07-18 12:50:21,376  INFO Config:563 setting context tofile:/C:/Users/MobiLab/Downloads/CS%2028-06/CS%2028-06/carsharing%2028-06/]
2018-07-18 12:50:21,378  INFO Config:563 setting context tofile:/C:/Users/MobiLab/Downloads/CS%2028-06/CS%2028-06/carsharing%2028-06/]
2018-07-18 12:50:21,382  INFO Config:563 setting context tofile:/C:/Users/MobiLab/Downloads/CS%2028-06/CS%2028-06/carsharing%2028-06/]
2018-07-18 12:50:21,385  INFO Config:563 setting context tofile:/C:/Users/MobiLab/Downloads/CS%2028-06/CS%2028-06/carsharing%2028-06/]
2018-07-18 12:50:21,387  INFO Config:563 setting context tofile:/C:/Users/MobiLab/Downloads/CS%2028-06/CS%2028-06/carsharing%2028-06/]
2018-07-18 12:50:21,391  INFO Config:563 setting context tofile:/C:/Users/MobiLab/Downloads/CS%2028-06/CS%2028-06/carsharing%2028-06/]
2018-07-18 12:50:21,394  INFO Config:563 setting context tofile:/C:/Users/MobiLab/Downloads/CS%2028-06/CS%2028-06/carsharing%2028-06/]
2018-07-18 12:50:21,397  INFO Config:563 setting context tofile:/C:/Users/MobiLab/Downloads/CS%2028-06/CS%2028-06/carsharing%2028-06/]
2018-07-18 12:50:21,399  INFO Config:563 setting context tofile:/C:/Users/MobiLab/Downloads/CS%2028-06/CS%2028-06/carsharing%2028-06/]
2018-07-18 12:50:21,406  INFO Config:563 setting context tofile:/C:/Users/MobiLab/Downloads/CS%2028-06/CS%2028-06/carsharing%2028-06/]
2018-07-18 12:50:21,408  INFO Config:563 setting context tofile:/C:/Users/MobiLab/Downloads/CS%2028-06/CS%2028-06/carsharing%2028-06/]
2018-07-18 12:50:21,411  INFO Config:563 setting context tofile:/C:/Users/MobiLab/Downloads/CS%2028-06/CS%2028-06/carsharing%2028-06/]
2018-07-18 12:50:21,413  INFO Config:563 setting context tofile:/C:/Users/MobiLab/Downloads/CS%2028-06/CS%2028-06/carsharing%2028-06/]
2018-07-18 12:50:21,415  INFO Config:563 setting context tofile:/C:/Users/MobiLab/Downloads/CS%2028-06/CS%2028-06/carsharing%2028-06/]
2018-07-18 12:50:21,417  INFO Config:563 setting context tofile:/C:/Users/MobiLab/Downloads/CS%2028-06/CS%2028-06/carsharing%2028-06/]
2018-07-18 12:50:21,420  INFO Config:563 setting context tofile:/C:/Users/MobiLab/Downloads/CS%2028-06/CS%2028-06/carsharing%2028-06/]
2018-07-18 12:50:21,422  INFO Config:563 setting context tofile:/C:/Users/MobiLab/Downloads/CS%2028-06/CS%2028-06/carsharing%2028-06/]
2018-07-18 12:50:21,582  INFO VehicleWriterV1:55 Vehicles written to: test/output/org/matsim/contrib/carsharing/runExample/RunCarsharingIT/test/run1.output_vehicles.xml.gz
2018-07-18 12:50:21,585  INFO Counter:76 [HouseholdsWriter] dumped household # 0
2018-07-18 12:50:21,589  INFO LanesWriter:63 Using LaneDefinitionWriter20...
2018-07-18 12:50:21,589  INFO LanesWriter:72 writing to file: test/output/org/matsim/contrib/carsharing/runExample/RunCarsharingIT/test/run1.output_lanes.xml.gz
2018-07-18 12:50:21,719  INFO ControlerListenerManagerImpl:126 calling notifyShutdown on org.matsim.analysis.ModeStatsControlerListener
2018-07-18 12:50:21,723  INFO ControlerListenerManagerImpl:126 calling notifyShutdown on org.matsim.analysis.ScoreStatsControlerListener
2018-07-18 12:50:21,724  INFO ControlerListenerManagerImpl:126 calling notifyShutdown on org.matsim.analysis.TravelDistanceStatsControlerListener
2018-07-18 12:50:21,725  INFO ControlerListenerManagerImpl:129 all ControlerShutdownListeners called.
2018-07-18 12:50:21,725  INFO MatsimRuntimeModifications:81 S H U T D O W N   ---   shutdown completed.
2018-07-18 12:50:21,725  INFO OutputDirectoryLogging:146 closing the logfile, i.e. messages sent to the logger after this message are not written to the logfile.
